* NGSPICE file created from SAR-ADC-using-Sky130-PDK.ext - technology: sky130A

.subckt SAR-ADC-using-Sky130-PDK CLK Q0 Q1 Q2 Q3 Q4 Q6 Q5 Q7 VDD Vin EN GND Vbias
X0 Comparator_0.Vinm CDAC8_0.switch_7.Z.t131 sky130_fd_pr__cap_mim_m3_2 l=2 w=22.7
X1 a_64511_52572# EN.t0 Vbias.t123 Vbias.t122 sky130_fd_pr__nfet_g5v0d10v5 ad=0.4176 pd=3.46 as=0.4176 ps=3.46 w=1.44 l=1.44
X2 a_45761_13083# CLK.t0 RingCounter_0.D_FlipFlop_8.3-input-nand_1.Vout.t3 Vbias.t326 sky130_fd_pr__nfet_g5v0d10v5 ad=0.4176 pd=3.46 as=0.4176 ps=3.46 w=1.44 l=1.44
X3 Vbias.t117 EN.t1 a_29289_15797# Vbias.t116 sky130_fd_pr__nfet_g5v0d10v5 ad=0.4176 pd=3.46 as=0.4176 ps=3.46 w=1.44 l=1.44
X4 VDD.t698 Nand_Gate_4.A.t4 RingCounter_0.D_FlipFlop_8.Q' VDD.t689 sky130_fd_pr__pfet_g5v0d10v5 ad=0.4176 pd=3.46 as=0.4176 ps=3.46 w=1.44 l=0.72
X5 D_FlipFlop_6.3-input-nand_2.C.t2 D_FlipFlop_6.3-input-nand_1.Vout VDD.t713 VDD.t712 sky130_fd_pr__pfet_g5v0d10v5 ad=0.4176 pd=3.46 as=0.4176 ps=3.46 w=1.44 l=0.72
X6 a_51499_49858# EN.t2 Vbias.t115 Vbias.t114 sky130_fd_pr__nfet_g5v0d10v5 ad=0.4176 pd=3.46 as=0.4176 ps=3.46 w=1.44 l=1.44
X7 Vbias.t121 EN.t3 a_46375_13083# Vbias.t120 sky130_fd_pr__nfet_g5v0d10v5 ad=0.4176 pd=3.46 as=0.4176 ps=3.46 w=1.44 l=1.44
X8 RingCounter_0.D_FlipFlop_3.3-input-nand_2.C.t3 VDD.t814 VDD.t815 VDD.t81 sky130_fd_pr__pfet_g5v0d10v5 ad=0.4176 pd=3.46 as=0.4176 ps=3.46 w=1.44 l=0.72
X9 a_100961_13083# CLK.t1 RingCounter_0.D_FlipFlop_11.3-input-nand_1.Vout.t2 Vbias.t327 sky130_fd_pr__nfet_g5v0d10v5 ad=0.4176 pd=3.46 as=0.4176 ps=3.46 w=1.44 l=1.44
X10 Comparator_0.Vinm CDAC8_0.switch_7.Z.t130 sky130_fd_pr__cap_mim_m3_2 l=2 w=22.7
X11 Comparator_0.Vinm CDAC8_0.switch_8.Z.t19 sky130_fd_pr__cap_mim_m3_2 l=2 w=22.7
X12 D_FlipFlop_7.Q' D_FlipFlop_7.Nand_Gate_1.Vout VDD.t489 VDD.t472 sky130_fd_pr__pfet_g5v0d10v5 ad=0.4176 pd=3.46 as=0.4176 ps=3.46 w=1.44 l=0.72
X13 a_124399_52572# RingCounter_0.D_FlipFlop_6.Nand_Gate_0.Vout a_123785_52572# Vbias.t303 sky130_fd_pr__nfet_g5v0d10v5 ad=0.4176 pd=3.46 as=0.4176 ps=3.46 w=1.44 l=1.44
X14 a_68585_52572# EN.t4 Vbias.t119 Vbias.t118 sky130_fd_pr__nfet_g5v0d10v5 ad=0.4176 pd=3.46 as=0.4176 ps=3.46 w=1.44 l=1.44
X15 a_51369_13083# RingCounter_0.D_FlipFlop_15.Nand_Gate_1.Vout.t3 a_50755_13083# Vbias.t753 sky130_fd_pr__nfet_g5v0d10v5 ad=0.4176 pd=3.46 as=0.4176 ps=3.46 w=1.44 l=1.44
X16 Comparator_0.Vinm CDAC8_0.switch_6.Z.t67 sky130_fd_pr__cap_mim_m3_2 l=2 w=22.7
X17 VDD.t239 D_FlipFlop_1.3-input-nand_2.Vout.t4 D_FlipFlop_1.3-input-nand_2.C.t3 VDD.t238 sky130_fd_pr__pfet_g5v0d10v5 ad=0.4176 pd=3.46 as=0.4176 ps=3.46 w=1.44 l=0.72
X18 Vbias.t113 EN.t5 a_101575_13083# Vbias.t112 sky130_fd_pr__nfet_g5v0d10v5 ad=0.4176 pd=3.46 as=0.4176 ps=3.46 w=1.44 l=1.44
X19 a_65125_52572# RingCounter_0.D_FlipFlop_2.3-input-nand_0.Vout a_64511_52572# Vbias.t579 sky130_fd_pr__nfet_g5v0d10v5 ad=0.4176 pd=3.46 as=0.4176 ps=3.46 w=1.44 l=1.44
X20 Comparator_0.Vinm CDAC8_0.switch_6.Z.t66 sky130_fd_pr__cap_mim_m3_2 l=2 w=22.7
X21 Comparator_0.Vinm CDAC8_0.switch_6.Z.t65 sky130_fd_pr__cap_mim_m3_2 l=2 w=22.7
X22 D_FlipFlop_4.3-input-nand_0.Vout D_FlipFlop_0.D.t3 VDD.t631 VDD.t264 sky130_fd_pr__pfet_g5v0d10v5 ad=0.4176 pd=3.46 as=0.4176 ps=3.46 w=1.44 l=0.72
X23 VDD.t1100 CLK.t2 RingCounter_0.D_FlipFlop_13.3-input-nand_0.Vout.t3 VDD.t1048 sky130_fd_pr__pfet_g5v0d10v5 ad=0.4176 pd=3.46 as=0.4176 ps=3.46 w=1.44 l=0.72
X24 Nand_Gate_0.A.t2 RingCounter_0.D_FlipFlop_2.Q' a_69199_52572# Vbias.t361 sky130_fd_pr__nfet_g5v0d10v5 ad=0.4176 pd=3.46 as=0.4176 ps=3.46 w=1.44 l=1.44
X25 Comparator_0.Vinm CDAC8_0.switch_6.Z.t64 sky130_fd_pr__cap_mim_m3_2 l=2 w=22.7
X26 VDD.t130 EN.t6 D_FlipFlop_1.3-input-nand_2.C.t0 VDD.t129 sky130_fd_pr__pfet_g5v0d10v5 ad=0.4176 pd=3.46 as=0.4176 ps=3.46 w=1.44 l=0.72
X27 a_52113_49858# RingCounter_0.D_FlipFlop_1.Inverter_0.Vout a_51499_49858# Vbias.t636 sky130_fd_pr__nfet_g5v0d10v5 ad=0.4176 pd=3.46 as=0.4176 ps=3.46 w=1.44 l=1.44
X28 RingCounter_0.D_FlipFlop_1.Nand_Gate_1.Vout.t0 RingCounter_0.D_FlipFlop_1.Inverter_1.Vout.t2 a_56187_49858# Vbias.t556 sky130_fd_pr__nfet_g5v0d10v5 ad=0.4176 pd=3.46 as=0.4176 ps=3.46 w=1.44 l=1.44
X29 VDD.t366 RingCounter_0.D_FlipFlop_3.3-input-nand_1.Vout.t4 RingCounter_0.D_FlipFlop_3.3-input-nand_2.C.t2 VDD.t365 sky130_fd_pr__pfet_g5v0d10v5 ad=0.4176 pd=3.46 as=0.4176 ps=3.46 w=1.44 l=0.72
X30 VDD.t610 RingCounter_0.D_FlipFlop_4.Nand_Gate_0.Vout Nand_Gate_2.A.t3 VDD.t447 sky130_fd_pr__pfet_g5v0d10v5 ad=0.4176 pd=3.46 as=0.4176 ps=3.46 w=1.44 l=0.72
X31 a_48565_16975# CLK.t3 Vbias.t329 Vbias.t328 sky130_fd_pr__nfet_g5v0d10v5 ad=0.4176 pd=3.46 as=0.4176 ps=3.46 w=1.44 l=1.44
X32 a_134283_17072# And_Gate_1.Vout.t2 D_FlipFlop_7.3-input-nand_1.Vout Vbias.t313 sky130_fd_pr__nfet_g5v0d10v5 ad=0.4176 pd=3.46 as=0.4176 ps=3.46 w=1.44 l=1.44
X33 VDD.t861 Nand_Gate_2.B.t4 RingCounter_0.D_FlipFlop_7.3-input-nand_0.Vout VDD.t598 sky130_fd_pr__pfet_g5v0d10v5 ad=0.4176 pd=3.46 as=0.4176 ps=3.46 w=1.44 l=0.72
X34 VDD.t818 RingCounter_0.D_FlipFlop_14.Inverter_1.Vout.t2 RingCounter_0.D_FlipFlop_14.Nand_Gate_1.Vout.t1 VDD.t817 sky130_fd_pr__pfet_g5v0d10v5 ad=0.4176 pd=3.46 as=0.4176 ps=3.46 w=1.44 l=0.72
X35 a_123785_52572# EN.t7 Vbias.t111 Vbias.t110 sky130_fd_pr__nfet_g5v0d10v5 ad=0.4176 pd=3.46 as=0.4176 ps=3.46 w=1.44 l=1.44
X36 VDD.t613 And_Gate_4.Vout.t2 D_FlipFlop_2.3-input-nand_1.Vout VDD.t612 sky130_fd_pr__pfet_g5v0d10v5 ad=0.4176 pd=3.46 as=0.4176 ps=3.46 w=1.44 l=0.72
X37 And_Gate_7.Vout.t1 And_Gate_7.Inverter_0.Vin Vbias.t740 Vbias.t739 sky130_fd_pr__nfet_g5v0d10v5 ad=0.4176 pd=3.46 as=0.4176 ps=3.46 w=1.44 l=1.44
X38 a_134283_27764# And_Gate_3.Vout.t2 D_FlipFlop_4.3-input-nand_1.Vout Vbias.t127 sky130_fd_pr__nfet_g5v0d10v5 ad=0.4176 pd=3.46 as=0.4176 ps=3.46 w=1.44 l=1.44
X39 a_71017_47663# Nand_Gate_0.A.t4 Vbias.t724 Vbias.t723 sky130_fd_pr__nfet_g5v0d10v5 ad=0.4176 pd=3.46 as=0.4176 ps=3.46 w=1.44 l=1.44
X40 a_74807_15797# RingCounter_0.D_FlipFlop_13.Inverter_1.Vout.t2 RingCounter_0.D_FlipFlop_13.Nand_Gate_0.Vout Vbias.t539 sky130_fd_pr__nfet_g5v0d10v5 ad=0.4176 pd=3.46 as=0.4176 ps=3.46 w=1.44 l=1.44
X41 D_FlipFlop_2.Nand_Gate_1.Vout D_FlipFlop_2.3-input-nand_2.C.t4 VDD.t137 VDD.t136 sky130_fd_pr__pfet_g5v0d10v5 ad=0.4176 pd=3.46 as=0.4176 ps=3.46 w=1.44 l=0.72
X42 Comparator_0.Vinm CDAC8_0.switch_9.Z.t35 sky130_fd_pr__cap_mim_m3_2 l=2 w=22.7
X43 Nand_Gate_5.B.t3 RingCounter_0.D_FlipFlop_6.Q' a_124399_52572# Vbias.t536 sky130_fd_pr__nfet_g5v0d10v5 ad=0.4176 pd=3.46 as=0.4176 ps=3.46 w=1.44 l=1.44
X44 Vbias.t232 VDD.t1108 a_51369_13083# Vbias.t231 sky130_fd_pr__nfet_g5v0d10v5 ad=0.4176 pd=3.46 as=0.4176 ps=3.46 w=1.44 l=1.44
X45 Comparator_0.Vinm CDAC8_0.switch_7.Z.t129 sky130_fd_pr__cap_mim_m3_2 l=2 w=22.7
X46 a_79495_15797# Nand_Gate_6.A.t4 a_78881_15797# Vbias.t712 sky130_fd_pr__nfet_g5v0d10v5 ad=0.4176 pd=3.46 as=0.4176 ps=3.46 w=1.44 l=1.44
X47 Nand_Gate_6.A.t3 RingCounter_0.D_FlipFlop_12.Nand_Gate_0.Vout VDD.t626 VDD.t625 sky130_fd_pr__pfet_g5v0d10v5 ad=0.4176 pd=3.46 as=0.4176 ps=3.46 w=1.44 l=0.72
X48 Vbias.t433 FFCLR.t4 a_132925_37007# Vbias.t167 sky130_fd_pr__nfet_g5v0d10v5 ad=0.4176 pd=3.46 as=0.4176 ps=3.46 w=1.44 l=1.44
X49 RingCounter_0.D_FlipFlop_7.Nand_Gate_1.Vout.t1 RingCounter_0.D_FlipFlop_7.Inverter_1.Vout.t2 a_111387_49858# Vbias.t892 sky130_fd_pr__nfet_g5v0d10v5 ad=0.4176 pd=3.46 as=0.4176 ps=3.46 w=1.44 l=1.44
X50 a_107927_13083# RingCounter_0.D_FlipFlop_9.Inverter_1.Vout.t2 RingCounter_0.D_FlipFlop_9.Nand_Gate_1.Vout.t2 Vbias.t633 sky130_fd_pr__nfet_g5v0d10v5 ad=0.4176 pd=3.46 as=0.4176 ps=3.46 w=1.44 l=1.44
X51 a_56187_49858# RingCounter_0.D_FlipFlop_1.3-input-nand_2.C.t4 Vbias.t543 Vbias.t542 sky130_fd_pr__nfet_g5v0d10v5 ad=0.4176 pd=3.46 as=0.4176 ps=3.46 w=1.44 l=1.44
X52 Comparator_0.Vinm CDAC8_0.switch_7.Z.t128 sky130_fd_pr__cap_mim_m3_2 l=2 w=22.7
X53 Comparator_0.Vinm CDAC8_0.switch_9.Z.t34 sky130_fd_pr__cap_mim_m3_2 l=2 w=22.7
X54 Vbias.t234 VDD.t1109 a_57415_15797# Vbias.t233 sky130_fd_pr__nfet_g5v0d10v5 ad=0.4176 pd=3.46 as=0.4176 ps=3.46 w=1.44 l=1.44
X55 a_134897_43285# D_FlipFlop_0.D.t4 a_134283_43285# Vbias.t400 sky130_fd_pr__nfet_g5v0d10v5 ad=0.4176 pd=3.46 as=0.4176 ps=3.46 w=1.44 l=1.44
X56 Nand_Gate_2.A.t1 RingCounter_0.D_FlipFlop_4.Q' VDD.t488 VDD.t151 sky130_fd_pr__pfet_g5v0d10v5 ad=0.4176 pd=3.46 as=0.4176 ps=3.46 w=1.44 l=0.72
X57 a_108671_52572# EN.t8 Vbias.t109 Vbias.t108 sky130_fd_pr__nfet_g5v0d10v5 ad=0.4176 pd=3.46 as=0.4176 ps=3.46 w=1.44 l=1.44
X58 VDD.t970 RingCounter_0.D_FlipFlop_10.Inverter_1.Vout.t2 RingCounter_0.D_FlipFlop_10.Nand_Gate_0.Vout VDD.t969 sky130_fd_pr__pfet_g5v0d10v5 ad=0.4176 pd=3.46 as=0.4176 ps=3.46 w=1.44 l=0.72
X59 Comparator_0.Vinm CDAC8_0.switch_8.Z.t18 sky130_fd_pr__cap_mim_m3_2 l=2 w=22.7
X60 VDD.t128 EN.t9 RingCounter_0.D_FlipFlop_14.3-input-nand_1.Vout.t0 VDD.t127 sky130_fd_pr__pfet_g5v0d10v5 ad=0.4176 pd=3.46 as=0.4176 ps=3.46 w=1.44 l=0.72
X61 RingCounter_0.D_FlipFlop_7.3-input-nand_2.Vout.t1 RingCounter_0.D_FlipFlop_7.3-input-nand_2.C.t4 a_109285_52572# Vbias.t9 sky130_fd_pr__nfet_g5v0d10v5 ad=0.4176 pd=3.46 as=0.4176 ps=3.46 w=1.44 l=1.44
X62 Comparator_0.Vinm CDAC8_0.switch_7.Z.t127 sky130_fd_pr__cap_mim_m3_2 l=2 w=22.7
X63 RingCounter_0.D_FlipFlop_6.3-input-nand_2.C.t2 VDD.t812 VDD.t813 VDD.t77 sky130_fd_pr__pfet_g5v0d10v5 ad=0.4176 pd=3.46 as=0.4176 ps=3.46 w=1.44 l=0.72
X64 RingCounter_0.D_FlipFlop_17.3-input-nand_2.C.t0 EN.t10 VDD.t126 VDD.t125 sky130_fd_pr__pfet_g5v0d10v5 ad=0.4176 pd=3.46 as=0.4176 ps=3.46 w=1.44 l=0.72
X65 D_FlipFlop_1.3-input-nand_2.Vout.t2 D_FlipFlop_1.3-input-nand_0.Vout VDD.t682 VDD.t190 sky130_fd_pr__pfet_g5v0d10v5 ad=0.4176 pd=3.46 as=0.4176 ps=3.46 w=1.44 l=0.72
X66 VDD.t487 RingCounter_0.D_FlipFlop_5.3-input-nand_0.Vout RingCounter_0.D_FlipFlop_5.3-input-nand_2.Vout.t1 VDD.t486 sky130_fd_pr__pfet_g5v0d10v5 ad=0.4176 pd=3.46 as=0.4176 ps=3.46 w=1.44 l=0.72
X67 a_76909_15797# RingCounter_0.D_FlipFlop_13.3-input-nand_2.C.t4 RingCounter_0.D_FlipFlop_13.3-input-nand_2.Vout.t1 Vbias.t670 sky130_fd_pr__nfet_g5v0d10v5 ad=0.4176 pd=3.46 as=0.4176 ps=3.46 w=1.44 l=1.44
X68 Comparator_0.Vinm CDAC8_0.switch_6.Z.t63 sky130_fd_pr__cap_mim_m3_2 l=2 w=22.7
X69 VDD.t124 EN.t11 Nand_Gate_6.A.t0 VDD.t123 sky130_fd_pr__pfet_g5v0d10v5 ad=0.4176 pd=3.46 as=0.4176 ps=3.46 w=1.44 l=0.72
X70 Vbias.t236 VDD.t1110 a_112615_15797# Vbias.t235 sky130_fd_pr__nfet_g5v0d10v5 ad=0.4176 pd=3.46 as=0.4176 ps=3.46 w=1.44 l=1.44
X71 D_FlipFlop_0.3-input-nand_2.Vout.t2 D_FlipFlop_0.3-input-nand_0.Vout VDD.t606 VDD.t596 sky130_fd_pr__pfet_g5v0d10v5 ad=0.4176 pd=3.46 as=0.4176 ps=3.46 w=1.44 l=0.72
X72 a_110029_13083# RingCounter_0.D_FlipFlop_9.3-input-nand_2.Vout.t4 RingCounter_0.D_FlipFlop_9.3-input-nand_2.C.t0 Vbias.t430 sky130_fd_pr__nfet_g5v0d10v5 ad=0.4176 pd=3.46 as=0.4176 ps=3.46 w=1.44 l=1.44
X73 VDD.t955 RingCounter_0.D_FlipFlop_12.3-input-nand_2.Vout.t4 RingCounter_0.D_FlipFlop_12.3-input-nand_2.C.t1 VDD.t954 sky130_fd_pr__pfet_g5v0d10v5 ad=0.4176 pd=3.46 as=0.4176 ps=3.46 w=1.44 l=0.72
X74 RingCounter_0.D_FlipFlop_2.Inverter_1.Vout.t1 CLK.t4 Vbias.t331 Vbias.t330 sky130_fd_pr__nfet_g5v0d10v5 ad=0.4176 pd=3.46 as=0.4176 ps=3.46 w=1.44 l=1.44
X75 RingCounter_0.D_FlipFlop_3.3-input-nand_2.Vout.t2 RingCounter_0.D_FlipFlop_3.3-input-nand_2.C.t4 VDD.t841 VDD.t280 sky130_fd_pr__pfet_g5v0d10v5 ad=0.4176 pd=3.46 as=0.4176 ps=3.46 w=1.44 l=0.72
X76 Vbias.t434 D_FlipFlop_5.3-input-nand_2.C.t4 a_130209_24200# Vbias.t148 sky130_fd_pr__nfet_g5v0d10v5 ad=0.4176 pd=3.46 as=0.4176 ps=3.46 w=1.44 l=1.44
X77 a_75898_39392# Q6.t4 Vbias.t759 Vbias.t758 sky130_fd_pr__nfet_g5v0d10v5 ad=0.4176 pd=3.46 as=0.4176 ps=3.46 w=1.44 l=1.44
X78 Comparator_0.Vinm CDAC8_0.switch_7.Z.t126 sky130_fd_pr__cap_mim_m3_2 l=2 w=22.7
X79 CDAC8_0.switch_2.Z.t2 a_75898_21528# VDD.t557 VDD.t282 sky130_fd_pr__pfet_g5v0d10v5 ad=0.4176 pd=3.46 as=0.4176 ps=3.46 w=1.44 l=0.72
X80 Comparator_0.Vinm CDAC8_0.switch_8.Z.t17 sky130_fd_pr__cap_mim_m3_2 l=2 w=22.7
X81 VDD.t402 Q3.t4 CDAC8_0.switch_5.Z.t2 Vbias.t436 sky130_fd_pr__nfet_g5v0d10v5 ad=0.4176 pd=3.46 as=0.4176 ps=3.46 w=1.44 l=1.44
X82 Nand_Gate_5.Vout.t2 Nand_Gate_5.B.t4 a_115177_47663# Vbias.t787 sky130_fd_pr__nfet_g5v0d10v5 ad=0.4176 pd=3.46 as=0.4176 ps=3.46 w=1.44 l=1.44
X83 a_109285_52572# RingCounter_0.D_FlipFlop_7.3-input-nand_0.Vout a_108671_52572# Vbias.t598 sky130_fd_pr__nfet_g5v0d10v5 ad=0.4176 pd=3.46 as=0.4176 ps=3.46 w=1.44 l=1.44
X84 Vbias.t617 Nand_Gate_6.B.t4 a_134897_24200# Vbias.t170 sky130_fd_pr__nfet_g5v0d10v5 ad=0.4176 pd=3.46 as=0.4176 ps=3.46 w=1.44 l=1.44
X85 VDD.t389 FFCLR.t5 D_FlipFlop_5.3-input-nand_0.Vout VDD.t289 sky130_fd_pr__pfet_g5v0d10v5 ad=0.4176 pd=3.46 as=0.4176 ps=3.46 w=1.44 l=0.72
X86 VDD.t1099 CLK.t5 RingCounter_0.D_FlipFlop_8.3-input-nand_0.Vout.t3 VDD.t1045 sky130_fd_pr__pfet_g5v0d10v5 ad=0.4176 pd=3.46 as=0.4176 ps=3.46 w=1.44 l=0.72
X87 Vbias.t333 CLK.t6 RingCounter_0.D_FlipFlop_13.Inverter_1.Vout.t1 Vbias.t332 sky130_fd_pr__nfet_g5v0d10v5 ad=0.4176 pd=3.46 as=0.4176 ps=3.46 w=1.44 l=1.44
X88 VDD.t459 RingCounter_0.D_FlipFlop_5.Nand_Gate_1.Vout.t3 RingCounter_0.D_FlipFlop_5.Q' VDD.t285 sky130_fd_pr__pfet_g5v0d10v5 ad=0.4176 pd=3.46 as=0.4176 ps=3.46 w=1.44 l=0.72
X89 RingCounter_0.D_FlipFlop_5.Inverter_0.Vout Nand_Gate_2.A.t4 Vbias.t708 Vbias.t707 sky130_fd_pr__nfet_g5v0d10v5 ad=0.4176 pd=3.46 as=0.4176 ps=3.46 w=1.44 l=1.44
X90 RingCounter_0.D_FlipFlop_17.Q' EN.t12 VDD.t122 VDD.t121 sky130_fd_pr__pfet_g5v0d10v5 ad=0.4176 pd=3.46 as=0.4176 ps=3.46 w=1.44 l=0.72
X91 RingCounter_0.D_FlipFlop_5.3-input-nand_0.Vout VDD.t810 VDD.t811 VDD.t55 sky130_fd_pr__pfet_g5v0d10v5 ad=0.4176 pd=3.46 as=0.4176 ps=3.46 w=1.44 l=0.72
X92 VDD.t404 Q3.t5 D_FlipFlop_4.Q' VDD.t403 sky130_fd_pr__pfet_g5v0d10v5 ad=0.4176 pd=3.46 as=0.4176 ps=3.46 w=1.44 l=0.72
X93 VDD.t899 RingCounter_0.D_FlipFlop_17.3-input-nand_1.Vout RingCounter_0.D_FlipFlop_17.3-input-nand_2.C.t3 VDD.t219 sky130_fd_pr__pfet_g5v0d10v5 ad=0.4176 pd=3.46 as=0.4176 ps=3.46 w=1.44 l=0.72
X94 RingCounter_0.D_FlipFlop_6.Inverter_1.Vout.t1 CLK.t7 Vbias.t335 Vbias.t334 sky130_fd_pr__nfet_g5v0d10v5 ad=0.4176 pd=3.46 as=0.4176 ps=3.46 w=1.44 l=1.44
X95 VDD.t551 RingCounter_0.D_FlipFlop_16.Inverter_1.Vout.t2 RingCounter_0.D_FlipFlop_16.Nand_Gate_1.Vout.t0 VDD.t550 sky130_fd_pr__pfet_g5v0d10v5 ad=0.4176 pd=3.46 as=0.4176 ps=3.46 w=1.44 l=0.72
X96 a_86591_49858# VDD.t1111 Vbias.t238 Vbias.t237 sky130_fd_pr__nfet_g5v0d10v5 ad=0.4176 pd=3.46 as=0.4176 ps=3.46 w=1.44 l=1.44
X97 RingCounter_0.D_FlipFlop_17.Q' FFCLR.t6 VDD.t391 VDD.t390 sky130_fd_pr__pfet_g5v0d10v5 ad=0.4176 pd=3.46 as=0.4176 ps=3.46 w=1.44 l=0.72
X98 VDD.t1098 CLK.t8 RingCounter_0.D_FlipFlop_11.3-input-nand_0.Vout.t3 VDD.t1042 sky130_fd_pr__pfet_g5v0d10v5 ad=0.4176 pd=3.46 as=0.4176 ps=3.46 w=1.44 l=0.72
X99 CDAC8_0.switch_5.Z.t1 a_75898_28676# Vbias.t764 Vbias.t763 sky130_fd_pr__nfet_g5v0d10v5 ad=0.4176 pd=3.46 as=0.4176 ps=3.46 w=1.44 l=1.44
X100 a_115177_47663# Nand_Gate_5.A.t4 Vbias.t830 Vbias.t829 sky130_fd_pr__nfet_g5v0d10v5 ad=0.4176 pd=3.46 as=0.4176 ps=3.46 w=1.44 l=1.44
X101 a_118967_15797# RingCounter_0.D_FlipFlop_10.Inverter_1.Vout.t3 RingCounter_0.D_FlipFlop_10.Nand_Gate_0.Vout Vbias.t858 sky130_fd_pr__nfet_g5v0d10v5 ad=0.4176 pd=3.46 as=0.4176 ps=3.46 w=1.44 l=1.44
X102 RingCounter_0.D_FlipFlop_5.Q' VDD.t808 VDD.t809 VDD.t73 sky130_fd_pr__pfet_g5v0d10v5 ad=0.4176 pd=3.46 as=0.4176 ps=3.46 w=1.44 l=0.72
X103 Nand_Gate_4.B.t0 RingCounter_0.D_FlipFlop_15.Nand_Gate_0.Vout VDD.t1 VDD.t0 sky130_fd_pr__pfet_g5v0d10v5 ad=0.4176 pd=3.46 as=0.4176 ps=3.46 w=1.44 l=0.72
X104 Comparator_0.Vinm CDAC8_0.switch_9.Z.t33 sky130_fd_pr__cap_mim_m3_2 l=2 w=22.7
X105 a_132311_40571# D_FlipFlop_3.3-input-nand_2.Vout.t4 D_FlipFlop_3.3-input-nand_2.C.t2 Vbias.t130 sky130_fd_pr__nfet_g5v0d10v5 ad=0.4176 pd=3.46 as=0.4176 ps=3.46 w=1.44 l=1.44
X106 Comparator_0.Vinm CDAC8_0.switch_7.Z.t125 sky130_fd_pr__cap_mim_m3_2 l=2 w=22.7
X107 Vbias.t652 D_FlipFlop_0.D.t5 D_FlipFlop_5.Inverter_0.Vout Vbias.t651 sky130_fd_pr__nfet_g5v0d10v5 ad=0.4176 pd=3.46 as=0.4176 ps=3.46 w=1.44 l=1.44
X108 VDD.t177 D_FlipFlop_3.3-input-nand_2.C.t4 D_FlipFlop_3.3-input-nand_2.Vout.t0 VDD.t176 sky130_fd_pr__pfet_g5v0d10v5 ad=0.4176 pd=3.46 as=0.4176 ps=3.46 w=1.44 l=0.72
X109 Vbias.t856 RingCounter_0.D_FlipFlop_12.3-input-nand_2.C.t4 a_85847_13083# Vbias.t855 sky130_fd_pr__nfet_g5v0d10v5 ad=0.4176 pd=3.46 as=0.4176 ps=3.46 w=1.44 l=1.44
X110 VDD.t393 FFCLR.t7 D_FlipFlop_2.3-input-nand_0.Vout VDD.t392 sky130_fd_pr__pfet_g5v0d10v5 ad=0.4176 pd=3.46 as=0.4176 ps=3.46 w=1.44 l=0.72
X111 RingCounter_0.D_FlipFlop_5.Q' Nand_Gate_2.B.t5 VDD.t863 VDD.t862 sky130_fd_pr__pfet_g5v0d10v5 ad=0.4176 pd=3.46 as=0.4176 ps=3.46 w=1.44 l=0.72
X112 Comparator_0.Vinm CDAC8_0.switch_7.Z.t124 sky130_fd_pr__cap_mim_m3_2 l=2 w=22.7
X113 a_128237_39721# D_FlipFlop_2.Q' Q6.t3 Vbias.t775 sky130_fd_pr__nfet_g5v0d10v5 ad=0.4176 pd=3.46 as=0.4176 ps=3.46 w=1.44 l=1.44
X114 D_FlipFlop_4.Q' D_FlipFlop_4.Nand_Gate_1.Vout VDD.t888 VDD.t887 sky130_fd_pr__pfet_g5v0d10v5 ad=0.4176 pd=3.46 as=0.4176 ps=3.46 w=1.44 l=0.72
X115 VDD.t708 Nand_Gate_2.A.t5 D_FlipFlop_3.3-input-nand_2.Vout.t2 VDD.t484 sky130_fd_pr__pfet_g5v0d10v5 ad=0.4176 pd=3.46 as=0.4176 ps=3.46 w=1.44 l=0.72
X116 VDD.t383 D_FlipFlop_0.3-input-nand_2.Vout.t4 D_FlipFlop_0.3-input-nand_2.C.t1 VDD.t174 sky130_fd_pr__pfet_g5v0d10v5 ad=0.4176 pd=3.46 as=0.4176 ps=3.46 w=1.44 l=0.72
X117 VDD.t951 RingCounter_0.D_FlipFlop_17.3-input-nand_2.C.t4 RingCounter_0.D_FlipFlop_17.Nand_Gate_1.Vout VDD.t274 sky130_fd_pr__pfet_g5v0d10v5 ad=0.4176 pd=3.46 as=0.4176 ps=3.46 w=1.44 l=0.72
X118 VDD.t892 D_FlipFlop_6.Inverter_1.Vout D_FlipFlop_6.Nand_Gate_1.Vout VDD.t890 sky130_fd_pr__pfet_g5v0d10v5 ad=0.4176 pd=3.46 as=0.4176 ps=3.46 w=1.44 l=0.72
X119 a_87205_49858# RingCounter_0.D_FlipFlop_4.3-input-nand_1.Vout.t4 a_86591_49858# Vbias.t449 sky130_fd_pr__nfet_g5v0d10v5 ad=0.4176 pd=3.46 as=0.4176 ps=3.46 w=1.44 l=1.44
X120 a_139496_37417.t1 a_139496_37417.t0 VDD.t700 VDD.t699 sky130_fd_pr__pfet_g5v0d10v5 ad=14.5 pd=100.58 as=14.5 ps=100.58 w=50 l=1
X121 Vbias.t709 Nand_Gate_2.A.t6 a_128851_43285# Vbias.t460 sky130_fd_pr__nfet_g5v0d10v5 ad=0.4176 pd=3.46 as=0.4176 ps=3.46 w=1.44 l=1.44
X122 Vbias.t584 D_FlipFlop_6.3-input-nand_2.C.t4 a_130209_20636# Vbias.t583 sky130_fd_pr__nfet_g5v0d10v5 ad=0.4176 pd=3.46 as=0.4176 ps=3.46 w=1.44 l=1.44
X123 VDD.t395 FFCLR.t8 D_FlipFlop_0.3-input-nand_2.C.t3 VDD.t394 sky130_fd_pr__pfet_g5v0d10v5 ad=0.4176 pd=3.46 as=0.4176 ps=3.46 w=1.44 l=0.72
X124 VDD.t120 EN.t13 RingCounter_0.D_FlipFlop_16.3-input-nand_1.Vout.t0 VDD.t119 sky130_fd_pr__pfet_g5v0d10v5 ad=0.4176 pd=3.46 as=0.4176 ps=3.46 w=1.44 l=0.72
X125 RingCounter_0.D_FlipFlop_17.3-input-nand_0.Vout.t2 CLK.t9 a_41073_52572# Vbias.t336 sky130_fd_pr__nfet_g5v0d10v5 ad=0.4176 pd=3.46 as=0.4176 ps=3.46 w=1.44 l=1.44
X126 VDD.t118 EN.t14 RingCounter_0.D_FlipFlop_9.3-input-nand_2.Vout.t1 VDD.t117 sky130_fd_pr__pfet_g5v0d10v5 ad=0.4176 pd=3.46 as=0.4176 ps=3.46 w=1.44 l=0.72
X127 Comparator_0.Vinm CDAC8_0.switch_8.Z.t16 sky130_fd_pr__cap_mim_m3_2 l=2 w=22.7
X128 a_43789_15797# RingCounter_0.D_FlipFlop_8.3-input-nand_2.C.t4 RingCounter_0.D_FlipFlop_8.3-input-nand_2.Vout.t3 Vbias.t806 sky130_fd_pr__nfet_g5v0d10v5 ad=0.4176 pd=3.46 as=0.4176 ps=3.46 w=1.44 l=1.44
X129 Vbias.t551 Nand_Gate_7.B.t4 a_134897_20636# Vbias.t550 sky130_fd_pr__nfet_g5v0d10v5 ad=0.4176 pd=3.46 as=0.4176 ps=3.46 w=1.44 l=1.44
X130 VDD.t397 FFCLR.t9 D_FlipFlop_6.3-input-nand_0.Vout VDD.t396 sky130_fd_pr__pfet_g5v0d10v5 ad=0.4176 pd=3.46 as=0.4176 ps=3.46 w=1.44 l=0.72
X131 a_128237_23350# D_FlipFlop_6.Q' Q1.t3 Vbias.t6 sky130_fd_pr__nfet_g5v0d10v5 ad=0.4176 pd=3.46 as=0.4176 ps=3.46 w=1.44 l=1.44
X132 CDAC8_0.switch_6.Z.t0 a_75898_39392# VDD.t619 VDD.t618 sky130_fd_pr__pfet_g5v0d10v5 ad=0.4176 pd=3.46 as=0.4176 ps=3.46 w=1.44 l=0.72
X133 VDD.t116 EN.t15 Nand_Gate_4.B.t1 VDD.t115 sky130_fd_pr__pfet_g5v0d10v5 ad=0.4176 pd=3.46 as=0.4176 ps=3.46 w=1.44 l=0.72
X134 a_139696_27690# Vin.t0 a_138366_35417.t1 Vbias.t548 sky130_fd_pr__nfet_g5v0d10v5 ad=4.35 pd=30.58 as=4.35 ps=30.58 w=15 l=1
X135 Comparator_0.Vinm CDAC8_0.switch_7.Z.t123 sky130_fd_pr__cap_mim_m3_2 l=2 w=22.7
X136 Comparator_0.Vinm CDAC8_0.switch_6.Z.t62 sky130_fd_pr__cap_mim_m3_2 l=2 w=22.7
X137 a_132925_40571# D_FlipFlop_3.3-input-nand_1.Vout a_132311_40571# Vbias.t147 sky130_fd_pr__nfet_g5v0d10v5 ad=0.4176 pd=3.46 as=0.4176 ps=3.46 w=1.44 l=1.44
X138 VDD.t526 RingCounter_0.D_FlipFlop_15.3-input-nand_2.Vout.t4 RingCounter_0.D_FlipFlop_15.3-input-nand_2.C.t0 VDD.t525 sky130_fd_pr__pfet_g5v0d10v5 ad=0.4176 pd=3.46 as=0.4176 ps=3.46 w=1.44 l=0.72
X139 Comparator_0.Vinm CDAC8_0.switch_7.Z.t122 sky130_fd_pr__cap_mim_m3_2 l=2 w=22.7
X140 RingCounter_0.D_FlipFlop_17.3-input-nand_2.Vout.t3 RingCounter_0.D_FlipFlop_17.3-input-nand_2.C.t5 VDD.t952 VDD.t276 sky130_fd_pr__pfet_g5v0d10v5 ad=0.4176 pd=3.46 as=0.4176 ps=3.46 w=1.44 l=0.72
X141 CDAC8_0.switch_1.Z.t0 a_75898_18814# VDD.t283 VDD.t282 sky130_fd_pr__pfet_g5v0d10v5 ad=0.4176 pd=3.46 as=0.4176 ps=3.46 w=1.44 l=0.72
X142 a_75898_28676# Q3.t6 VDD.t406 VDD.t405 sky130_fd_pr__pfet_g5v0d10v5 ad=0.4176 pd=3.46 as=0.4176 ps=3.46 w=1.44 l=0.72
X143 a_134897_19786# D_FlipFlop_0.D.t6 a_134283_19786# Vbias.t653 sky130_fd_pr__nfet_g5v0d10v5 ad=0.4176 pd=3.46 as=0.4176 ps=3.46 w=1.44 l=1.44
X144 VDD.t446 RingCounter_0.D_FlipFlop_6.3-input-nand_0.Vout RingCounter_0.D_FlipFlop_6.3-input-nand_2.Vout.t1 VDD.t445 sky130_fd_pr__pfet_g5v0d10v5 ad=0.4176 pd=3.46 as=0.4176 ps=3.46 w=1.44 l=0.72
X145 a_103765_47663# Nand_Gate_2.Vout.t3 Vbias.t720 Vbias.t719 sky130_fd_pr__nfet_g5v0d10v5 ad=0.4176 pd=3.46 as=0.4176 ps=3.46 w=1.44 l=1.44
X146 RingCounter_0.D_FlipFlop_2.Inverter_0.Vout Nand_Gate_3.B.t4 Vbias.t421 Vbias.t420 sky130_fd_pr__nfet_g5v0d10v5 ad=0.4176 pd=3.46 as=0.4176 ps=3.46 w=1.44 l=1.44
X147 Vbias.t338 CLK.t10 RingCounter_0.D_FlipFlop_8.Inverter_1.Vout.t1 Vbias.t337 sky130_fd_pr__nfet_g5v0d10v5 ad=0.4176 pd=3.46 as=0.4176 ps=3.46 w=1.44 l=1.44
X148 RingCounter_0.D_FlipFlop_2.3-input-nand_0.Vout VDD.t806 VDD.t807 VDD.t53 sky130_fd_pr__pfet_g5v0d10v5 ad=0.4176 pd=3.46 as=0.4176 ps=3.46 w=1.44 l=0.72
X149 VDD.t449 RingCounter_0.D_FlipFlop_2.3-input-nand_2.Vout.t4 RingCounter_0.D_FlipFlop_2.Nand_Gate_0.Vout VDD.t301 sky130_fd_pr__pfet_g5v0d10v5 ad=0.4176 pd=3.46 as=0.4176 ps=3.46 w=1.44 l=0.72
X150 And_Gate_3.Vout.t0 And_Gate_3.Inverter_0.Vin VDD.t590 VDD.t589 sky130_fd_pr__pfet_g5v0d10v5 ad=0.4176 pd=3.46 as=0.4176 ps=3.46 w=1.44 l=0.72
X151 RingCounter_0.D_FlipFlop_3.Inverter_1.Vout.t0 CLK.t11 VDD.t1090 VDD.t1089 sky130_fd_pr__pfet_g5v0d10v5 ad=0.4176 pd=3.46 as=0.4176 ps=3.46 w=1.44 l=0.72
X152 Comparator_0.Vinm CDAC8_0.switch_6.Z.t61 sky130_fd_pr__cap_mim_m3_2 l=2 w=22.7
X153 VDD.t114 EN.t16 Nand_Gate_1.B.t0 VDD.t113 sky130_fd_pr__pfet_g5v0d10v5 ad=0.4176 pd=3.46 as=0.4176 ps=3.46 w=1.44 l=0.72
X154 VDD.t18 RingCounter_0.D_FlipFlop_9.3-input-nand_2.C.t4 RingCounter_0.D_FlipFlop_9.3-input-nand_2.Vout.t0 VDD.t17 sky130_fd_pr__pfet_g5v0d10v5 ad=0.4176 pd=3.46 as=0.4176 ps=3.46 w=1.44 l=0.72
X155 RingCounter_0.D_FlipFlop_5.3-input-nand_1.Vout.t1 CLK.t12 a_96273_49858# Vbias.t339 sky130_fd_pr__nfet_g5v0d10v5 ad=0.4176 pd=3.46 as=0.4176 ps=3.46 w=1.44 l=1.44
X156 Vbias.t284 Q7.t4 CDAC8_0.switch_7.Z.t0 VDD.t225 sky130_fd_pr__pfet_g5v0d10v5 ad=0.4176 pd=3.46 as=0.4176 ps=3.46 w=1.44 l=0.72
X157 VDD.t243 RingCounter_0.D_FlipFlop_6.3-input-nand_2.Vout.t4 RingCounter_0.D_FlipFlop_6.Nand_Gate_0.Vout VDD.t242 sky130_fd_pr__pfet_g5v0d10v5 ad=0.4176 pd=3.46 as=0.4176 ps=3.46 w=1.44 l=0.72
X158 Vbias.t345 RingCounter_0.D_FlipFlop_15.3-input-nand_2.C.t4 a_52727_13083# Vbias.t344 sky130_fd_pr__nfet_g5v0d10v5 ad=0.4176 pd=3.46 as=0.4176 ps=3.46 w=1.44 l=1.44
X159 VDD.t458 And_Gate_5.Vout.t2 D_FlipFlop_1.3-input-nand_1.Vout VDD.t140 sky130_fd_pr__pfet_g5v0d10v5 ad=0.4176 pd=3.46 as=0.4176 ps=3.46 w=1.44 l=0.72
X160 Comparator_0.Vinm CDAC8_0.switch_7.Z.t121 sky130_fd_pr__cap_mim_m3_2 l=2 w=22.7
X161 VDD.t378 Nand_Gate_3.B.t5 RingCounter_0.D_FlipFlop_2.3-input-nand_0.Vout VDD.t377 sky130_fd_pr__pfet_g5v0d10v5 ad=0.4176 pd=3.46 as=0.4176 ps=3.46 w=1.44 l=0.72
X162 Comparator_0.Vinm CDAC8_0.switch_7.Z.t120 sky130_fd_pr__cap_mim_m3_2 l=2 w=22.7
X163 D_FlipFlop_1.Nand_Gate_1.Vout D_FlipFlop_1.3-input-nand_2.C.t4 VDD.t231 VDD.t230 sky130_fd_pr__pfet_g5v0d10v5 ad=0.4176 pd=3.46 as=0.4176 ps=3.46 w=1.44 l=0.72
X164 a_57545_49858# VDD.t1112 Vbias.t240 Vbias.t239 sky130_fd_pr__nfet_g5v0d10v5 ad=0.4176 pd=3.46 as=0.4176 ps=3.46 w=1.44 l=1.44
X165 Comparator_0.Vinm CDAC8_0.switch_7.Z.t119 sky130_fd_pr__cap_mim_m3_2 l=2 w=22.7
X166 RingCounter_0.D_FlipFlop_2.Nand_Gate_0.Vout RingCounter_0.D_FlipFlop_2.Inverter_1.Vout.t2 VDD.t856 VDD.t855 sky130_fd_pr__pfet_g5v0d10v5 ad=0.4176 pd=3.46 as=0.4176 ps=3.46 w=1.44 l=0.72
X167 Comparator_0.Vinm CDAC8_0.switch_9.Z.t32 sky130_fd_pr__cap_mim_m3_2 l=2 w=22.7
X168 a_138366_35417.t2 D_FlipFlop_0.D.t0 sky130_fd_pr__cap_mim_m3_2 l=5.35 w=2
X169 a_75898_42964# Q5.t4 VDD.t385 VDD.t384 sky130_fd_pr__pfet_g5v0d10v5 ad=0.4176 pd=3.46 as=0.4176 ps=3.46 w=1.44 l=0.72
X170 a_130209_33443# D_FlipFlop_1.Inverter_1.Vout D_FlipFlop_1.Nand_Gate_1.Vout Vbias.t467 sky130_fd_pr__nfet_g5v0d10v5 ad=0.4176 pd=3.46 as=0.4176 ps=3.46 w=1.44 l=1.44
X171 VDD.t444 D_FlipFlop_1.Inverter_1.Vout D_FlipFlop_1.Nand_Gate_0.Vout VDD.t442 sky130_fd_pr__pfet_g5v0d10v5 ad=0.4176 pd=3.46 as=0.4176 ps=3.46 w=1.44 l=0.72
X172 VDD.t562 RingCounter_0.D_FlipFlop_7.3-input-nand_0.Vout RingCounter_0.D_FlipFlop_7.3-input-nand_2.Vout.t3 VDD.t561 sky130_fd_pr__pfet_g5v0d10v5 ad=0.4176 pd=3.46 as=0.4176 ps=3.46 w=1.44 l=0.72
X173 VDD.t630 D_FlipFlop_0.Inverter_1.Vout D_FlipFlop_0.Nand_Gate_0.Vout VDD.t628 sky130_fd_pr__pfet_g5v0d10v5 ad=0.4176 pd=3.46 as=0.4176 ps=3.46 w=1.44 l=0.72
X174 a_112745_49858# VDD.t1113 Vbias.t242 Vbias.t241 sky130_fd_pr__nfet_g5v0d10v5 ad=0.4176 pd=3.46 as=0.4176 ps=3.46 w=1.44 l=1.44
X175 VDD.t874 D_FlipFlop_7.3-input-nand_2.C.t4 D_FlipFlop_7.3-input-nand_2.Vout.t3 VDD.t873 sky130_fd_pr__pfet_g5v0d10v5 ad=0.4176 pd=3.46 as=0.4176 ps=3.46 w=1.44 l=0.72
X176 RingCounter_0.D_FlipFlop_6.Nand_Gate_0.Vout RingCounter_0.D_FlipFlop_6.Inverter_1.Vout.t2 VDD.t656 VDD.t655 sky130_fd_pr__pfet_g5v0d10v5 ad=0.4176 pd=3.46 as=0.4176 ps=3.46 w=1.44 l=0.72
X177 Vbias.t129 D_FlipFlop_2.3-input-nand_2.C.t5 a_130209_37007# Vbias.t128 sky130_fd_pr__nfet_g5v0d10v5 ad=0.4176 pd=3.46 as=0.4176 ps=3.46 w=1.44 l=1.44
X178 Nand_Gate_1.Vout.t1 Nand_Gate_1.B.t4 VDD.t368 VDD.t367 sky130_fd_pr__pfet_g5v0d10v5 ad=0.4176 pd=3.46 as=0.4176 ps=3.46 w=1.44 l=0.72
X179 RingCounter_0.D_FlipFlop_12.Nand_Gate_0.Vout RingCounter_0.D_FlipFlop_12.3-input-nand_2.Vout.t5 VDD.t661 VDD.t660 sky130_fd_pr__pfet_g5v0d10v5 ad=0.4176 pd=3.46 as=0.4176 ps=3.46 w=1.44 l=0.72
X180 Vbias.t725 Nand_Gate_0.A.t5 a_134897_37007# Vbias.t84 sky130_fd_pr__nfet_g5v0d10v5 ad=0.4176 pd=3.46 as=0.4176 ps=3.46 w=1.44 l=1.44
X181 Comparator_0.Vinm CDAC8_0.switch_7.Z.t118 sky130_fd_pr__cap_mim_m3_2 l=2 w=22.7
X182 a_69199_52572# RingCounter_0.D_FlipFlop_2.Nand_Gate_0.Vout a_68585_52572# Vbias.t160 sky130_fd_pr__nfet_g5v0d10v5 ad=0.4176 pd=3.46 as=0.4176 ps=3.46 w=1.44 l=1.44
X183 Comparator_0.Vinm CDAC8_0.switch_7.Z.t117 sky130_fd_pr__cap_mim_m3_2 l=2 w=22.7
X184 Vbias.t367 Nand_Gate_7.A.t4 RingCounter_0.D_FlipFlop_15.Inverter_0.Vout Vbias.t366 sky130_fd_pr__nfet_g5v0d10v5 ad=0.4176 pd=3.46 as=0.4176 ps=3.46 w=1.44 l=1.44
X185 VDD.t1101 Nand_Gate_4.B.t4 D_FlipFlop_7.3-input-nand_2.Vout.t1 VDD.t985 sky130_fd_pr__pfet_g5v0d10v5 ad=0.4176 pd=3.46 as=0.4176 ps=3.46 w=1.44 l=0.72
X186 Comparator_0.Vinm CDAC8_0.switch_7.Z.t116 sky130_fd_pr__cap_mim_m3_2 l=2 w=22.7
X187 a_138318_16817# a_138318_16817# Vbias.t473 Vbias.t472 sky130_fd_pr__nfet_g5v0d10v5 ad=5.8 pd=40.58 as=5.8 ps=40.58 w=20 l=1
X188 Comparator_0.Vinm CDAC8_0.switch_9.Z.t31 sky130_fd_pr__cap_mim_m3_2 l=2 w=22.7
X189 RingCounter_0.D_FlipFlop_7.Inverter_0.Vout Nand_Gate_2.B.t6 Vbias.t602 Vbias.t601 sky130_fd_pr__nfet_g5v0d10v5 ad=0.4176 pd=3.46 as=0.4176 ps=3.46 w=1.44 l=1.44
X190 Vbias.t887 Nand_Gate_4.B.t5 a_128851_19786# Vbias.t881 sky130_fd_pr__nfet_g5v0d10v5 ad=0.4176 pd=3.46 as=0.4176 ps=3.46 w=1.44 l=1.44
X191 a_132311_26914# D_FlipFlop_5.3-input-nand_2.C.t5 D_FlipFlop_5.3-input-nand_2.Vout.t1 Vbias.t435 sky130_fd_pr__nfet_g5v0d10v5 ad=0.4176 pd=3.46 as=0.4176 ps=3.46 w=1.44 l=1.44
X192 a_72835_13083# Nand_Gate_7.B.t5 RingCounter_0.D_FlipFlop_13.Q' Vbias.t552 sky130_fd_pr__nfet_g5v0d10v5 ad=0.4176 pd=3.46 as=0.4176 ps=3.46 w=1.44 l=1.44
X193 RingCounter_0.D_FlipFlop_7.3-input-nand_0.Vout VDD.t804 VDD.t805 VDD.t47 sky130_fd_pr__pfet_g5v0d10v5 ad=0.4176 pd=3.46 as=0.4176 ps=3.46 w=1.44 l=0.72
X194 a_77523_13083# RingCounter_0.D_FlipFlop_13.3-input-nand_1.Vout.t4 a_76909_13083# Vbias.t778 sky130_fd_pr__nfet_g5v0d10v5 ad=0.4176 pd=3.46 as=0.4176 ps=3.46 w=1.44 l=1.44
X195 Comparator_0.Vinm CDAC8_0.switch_6.Z.t60 sky130_fd_pr__cap_mim_m3_2 l=2 w=22.7
X196 a_73579_52572# VDD.t1114 Vbias.t244 Vbias.t243 sky130_fd_pr__nfet_g5v0d10v5 ad=0.4176 pd=3.46 as=0.4176 ps=3.46 w=1.44 l=1.44
X197 RingCounter_0.D_FlipFlop_7.3-input-nand_0.Vout CLK.t13 VDD.t1097 VDD.t1030 sky130_fd_pr__pfet_g5v0d10v5 ad=0.4176 pd=3.46 as=0.4176 ps=3.46 w=1.44 l=0.72
X198 Vbias.t416 Nand_Gate_1.B.t5 RingCounter_0.D_FlipFlop_9.Inverter_0.Vout Vbias.t415 sky130_fd_pr__nfet_g5v0d10v5 ad=0.4176 pd=3.46 as=0.4176 ps=3.46 w=1.44 l=1.44
X199 VDD.t195 FFCLR.t10 D_FlipFlop_6.Q' VDD.t194 sky130_fd_pr__pfet_g5v0d10v5 ad=0.4176 pd=3.46 as=0.4176 ps=3.46 w=1.44 l=0.72
X200 Vbias.t465 RingCounter_0.D_FlipFlop_14.3-input-nand_2.Vout.t4 a_63767_15797# Vbias.t464 sky130_fd_pr__nfet_g5v0d10v5 ad=0.4176 pd=3.46 as=0.4176 ps=3.46 w=1.44 l=1.44
X201 Vbias.t810 And_Gate_2.Vout.t2 D_FlipFlop_5.Inverter_1.Vout Vbias.t809 sky130_fd_pr__nfet_g5v0d10v5 ad=0.4176 pd=3.46 as=0.4176 ps=3.46 w=1.44 l=1.44
X202 RingCounter_0.D_FlipFlop_2.3-input-nand_1.Vout.t2 CLK.t14 a_63153_49858# Vbias.t340 sky130_fd_pr__nfet_g5v0d10v5 ad=0.4176 pd=3.46 as=0.4176 ps=3.46 w=1.44 l=1.44
X203 Comparator_0.Vinm CDAC8_0.switch_6.Z.t59 sky130_fd_pr__cap_mim_m3_2 l=2 w=22.7