* NGSPICE file created from SAR-ADC-using-Sky130-PDK.ext - technology: sky130A

.subckt SAR-ADC-using-Sky130-PDK VDD Vin Q0 Vbias EN Q1 CLK Q2 Q3 Q4 Q5 Q6 Q7 GND
X0 a_49391_58825# Ring_Counter_0.D_FlipFlop_0.3-input-nand_2.Vout.t4 Ring_Counter_0.D_FlipFlop_0.3-input-nand_2.C.t2 GND.t95 sky130_fd_pr__nfet_g5v0d10v5 ad=0.4176 pd=3.46 as=0.4176 ps=3.46 w=1.44 l=1.44
X1 GND.t63 EN.t0 a_9337_55365# GND.t62 sky130_fd_pr__nfet_g5v0d10v5 ad=0.4176 pd=3.46 as=0.4176 ps=3.46 w=1.44 l=1.44
X2 GND.t712 Q0.t4 CDAC_v3_0.switch_8.Z.t1 VDD.t776 sky130_fd_pr__pfet_g5v0d10v5 ad=0.4176 pd=3.46 as=0.4176 ps=3.46 w=1.44 l=0.72
X3 a_n1355_54751# Ring_Counter_0.D_FlipFlop_15.Qbar.t4 Nand_Gate_1.A.t2 GND.t138 sky130_fd_pr__nfet_g5v0d10v5 ad=0.4176 pd=3.46 as=0.4176 ps=3.46 w=1.44 l=1.44
X4 VDD.t214 VDD.t212 Ring_Counter_0.D_FlipFlop_8.3-input-nand_0.Vout VDD.t213 sky130_fd_pr__pfet_g5v0d10v5 ad=0.4176 pd=3.46 as=0.4176 ps=3.46 w=1.44 l=0.72
X5 GND.t210 EN.t1 a_44977_59439# GND.t149 sky130_fd_pr__nfet_g5v0d10v5 ad=0.4176 pd=3.46 as=0.4176 ps=3.46 w=1.44 l=1.44
X6 CDAC_v3_0.OUT CDAC_v3_0.switch_6.Z.t130 sky130_fd_pr__cap_mim_m3_1 l=6.88 w=6.88
X7 VDD.t1 D_FlipFlop_2.3-input-nand_2.Vout.t4 D_FlipFlop_2.Nand_Gate_0.Vout VDD.t0 sky130_fd_pr__pfet_g5v0d10v5 ad=0.4176 pd=3.46 as=0.4176 ps=3.46 w=1.44 l=0.72
X8 GND.t199 Ring_Counter_0.D_FlipFlop_1.3-input-nand_2.Vout.t4 a_48541_56723# GND.t84 sky130_fd_pr__nfet_g5v0d10v5 ad=0.4176 pd=3.46 as=0.4176 ps=3.46 w=1.44 l=1.44
X9 D_FlipFlop_6.Nand_Gate_0.Vout D_FlipFlop_6.Inverter_1.Vout VDD.t444 VDD.t442 sky130_fd_pr__pfet_g5v0d10v5 ad=0.4176 pd=3.46 as=0.4176 ps=3.46 w=1.44 l=0.72
X10 a_2209_59439# Ring_Counter_0.D_FlipFlop_14.3-input-nand_0.Vout a_2209_58825# GND.t36 sky130_fd_pr__nfet_g5v0d10v5 ad=0.4176 pd=3.46 as=0.4176 ps=3.46 w=1.44 l=1.44
X11 CDAC_v3_0.OUT CDAC_v3_0.switch_7.Z.t65 sky130_fd_pr__cap_mim_m3_1 l=6.88 w=6.88
X12 CDAC_v3_0.OUT CDAC_v3_0.switch_7.Z.t64 sky130_fd_pr__cap_mim_m3_1 l=6.88 w=6.88
X13 D_FlipFlop_4.3-input-nand_0.Vout D_FlipFlop_4.CLK.t2 VDD.t483 VDD.t482 sky130_fd_pr__pfet_g5v0d10v5 ad=0.4176 pd=3.46 as=0.4176 ps=3.46 w=1.44 l=0.72
X14 a_23593_60797# CLK.t0 Ring_Counter_0.D_FlipFlop_8.3-input-nand_0.Vout GND.t8 sky130_fd_pr__nfet_g5v0d10v5 ad=0.4176 pd=3.46 as=0.4176 ps=3.46 w=1.44 l=1.44
X15 GND.t502 GND.t503 sky130_fd_pr__cap_mim_m3_1 l=6.88 w=6.88
X16 Ring_Counter_0.D_FlipFlop_0.3-input-nand_1.Vout Ring_Counter_0.D_FlipFlop_0.3-input-nand_1.B VDD.t897 VDD.t101 sky130_fd_pr__pfet_g5v0d10v5 ad=0.4176 pd=3.46 as=0.4176 ps=3.46 w=1.44 l=0.72
X17 VDD.t472 Ring_Counter_0.D_FlipFlop_5.3-input-nand_2.Vout.t4 Ring_Counter_0.D_FlipFlop_5.3-input-nand_2.C.t2 VDD.t46 sky130_fd_pr__pfet_g5v0d10v5 ad=0.4176 pd=3.46 as=0.4176 ps=3.46 w=1.44 l=0.72
X18 D_FlipFlop_0.3-input-nand_1.Vout D_FlipFlop_0.CLK.t2 VDD.t459 VDD.t458 sky130_fd_pr__pfet_g5v0d10v5 ad=0.4176 pd=3.46 as=0.4176 ps=3.46 w=1.44 l=0.72
X19 Ring_Counter_0.D_FlipFlop_14.3-input-nand_1.Vout.t0 Ring_Counter_0.D_FlipFlop_14.3-input-nand_1.B VDD.t272 VDD.t116 sky130_fd_pr__pfet_g5v0d10v5 ad=0.4176 pd=3.46 as=0.4176 ps=3.46 w=1.44 l=0.72
X20 GND.t94 CLK.t1 Ring_Counter_0.D_FlipFlop_14.Inverter_1.Vout.t1 GND.t37 sky130_fd_pr__nfet_g5v0d10v5 ad=0.4176 pd=3.46 as=0.4176 ps=3.46 w=1.44 l=1.44
X21 a_3059_61411# Ring_Counter_0.D_FlipFlop_13.3-input-nand_1.B a_3059_60797# GND.t24 sky130_fd_pr__nfet_g5v0d10v5 ad=0.4176 pd=3.46 as=0.4176 ps=3.46 w=1.44 l=1.44
X22 a_49930_48405# FFCLR.t4 GND.t641 GND.t640 sky130_fd_pr__nfet_g5v0d10v5 ad=0.4176 pd=3.46 as=0.4176 ps=3.46 w=1.44 l=1.44
X23 a_6623_56723# Ring_Counter_0.D_FlipFlop_12.Inverter_1.Vout.t2 Ring_Counter_0.D_FlipFlop_12.Nand_Gate_1.Vout.t1 GND.t92 sky130_fd_pr__nfet_g5v0d10v5 ad=0.4176 pd=3.46 as=0.4176 ps=3.46 w=1.44 l=1.44
X24 a_n4069_55365# Ring_Counter_0.D_FlipFlop_15.Nand_Gate_1.Vout.t3 a_n4069_54751# GND.t75 sky130_fd_pr__nfet_g5v0d10v5 ad=0.4176 pd=3.46 as=0.4176 ps=3.46 w=1.44 l=1.44
X25 GND.t518 VDD.t924 a_37849_61411# GND.t40 sky130_fd_pr__nfet_g5v0d10v5 ad=0.4176 pd=3.46 as=0.4176 ps=3.46 w=1.44 l=1.44
X26 CDAC_v3_0.OUT CDAC_v3_0.switch_5.Z.t35 sky130_fd_pr__cap_mim_m3_1 l=6.88 w=6.88
X27 Ring_Counter_0.D_FlipFlop_16.3-input-nand_2.Vout.t0 Ring_Counter_0.D_FlipFlop_16.3-input-nand_0.Vout VDD.t77 VDD.t76 sky130_fd_pr__pfet_g5v0d10v5 ad=0.4176 pd=3.46 as=0.4176 ps=3.46 w=1.44 l=0.72
X28 D_FlipFlop_2.3-input-nand_1.Vout D_FlipFlop_2.CLK.t2 a_33020_48405# GND.t578 sky130_fd_pr__nfet_g5v0d10v5 ad=0.4176 pd=3.46 as=0.4176 ps=3.46 w=1.44 l=1.44
X29 CDAC_v3_0.OUT CDAC_v3_0.switch_6.Z.t129 sky130_fd_pr__cap_mim_m3_1 l=6.88 w=6.88
X30 VDD.t211 VDD.t209 Ring_Counter_0.D_FlipFlop_1.3-input-nand_0.Vout VDD.t210 sky130_fd_pr__pfet_g5v0d10v5 ad=0.4176 pd=3.46 as=0.4176 ps=3.46 w=1.44 l=0.72
X31 VDD.t399 Ring_Counter_0.D_FlipFlop_1.3-input-nand_2.Vout.t5 Ring_Counter_0.D_FlipFlop_1.3-input-nand_2.C.t3 VDD.t106 sky130_fd_pr__pfet_g5v0d10v5 ad=0.4176 pd=3.46 as=0.4176 ps=3.46 w=1.44 l=0.72
X32 CDAC_v3_0.OUT CDAC_v3_0.switch_6.Z.t128 sky130_fd_pr__cap_mim_m3_1 l=6.88 w=6.88
X33 CDAC_v3_0.OUT CDAC_v3_0.switch_5.Z.t34 sky130_fd_pr__cap_mim_m3_1 l=6.88 w=6.88
X34 a_51632_31172.t2 a_51632_31172.t1 VDD.t43 VDD.t42 sky130_fd_pr__pfet_g5v0d10v5 ad=14.5 pd=100.58 as=14.5 ps=100.58 w=50 l=1
X35 GND.t500 GND.t501 sky130_fd_pr__cap_mim_m3_1 l=6.88 w=6.88
X36 VDD.t73 Ring_Counter_0.D_FlipFlop_9.Qbar Nand_Gate_6.A.t0 VDD.t72 sky130_fd_pr__pfet_g5v0d10v5 ad=0.4176 pd=3.46 as=0.4176 ps=3.46 w=1.44 l=0.72
X37 CDAC_v3_0.OUT CDAC_v3_0.switch_6.Z.t127 sky130_fd_pr__cap_mim_m3_1 l=6.88 w=6.88
X38 VDD.t424 D_FlipFlop_2.3-input-nand_1.B D_FlipFlop_2.3-input-nand_1.Vout VDD.t277 sky130_fd_pr__pfet_g5v0d10v5 ad=0.4176 pd=3.46 as=0.4176 ps=3.46 w=1.44 l=0.72
X39 CDAC_v3_0.OUT CDAC_v3_0.switch_6.Z.t126 sky130_fd_pr__cap_mim_m3_1 l=6.88 w=6.88
X40 GND.t498 GND.t499 sky130_fd_pr__cap_mim_m3_1 l=6.88 w=6.88
X41 GND.t224 Nand_Gate_6.A.t4 Ring_Counter_0.D_FlipFlop_10.3-input-nand_1.B GND.t32 sky130_fd_pr__nfet_g5v0d10v5 ad=0.4176 pd=3.46 as=0.4176 ps=3.46 w=1.44 l=1.44
X42 D_FlipFlop_6.3-input-nand_1.Vout D_FlipFlop_6.CLK.t2 VDD.t375 VDD.t343 sky130_fd_pr__pfet_g5v0d10v5 ad=0.4176 pd=3.46 as=0.4176 ps=3.46 w=1.44 l=0.72
X43 D_FlipFlop_3.3-input-nand_1.B D_FlipFlop_7.D.t3 VDD.t17 VDD.t16 sky130_fd_pr__pfet_g5v0d10v5 ad=0.4176 pd=3.46 as=0.4176 ps=3.46 w=1.44 l=0.72
X44 GND.t519 VDD.t925 a_31571_59439# GND.t21 sky130_fd_pr__nfet_g5v0d10v5 ad=0.4176 pd=3.46 as=0.4176 ps=3.46 w=1.44 l=1.44
X45 GND.t520 VDD.t926 a_28007_59439# GND.t140 sky130_fd_pr__nfet_g5v0d10v5 ad=0.4176 pd=3.46 as=0.4176 ps=3.46 w=1.44 l=1.44
X46 CDAC_v3_0.OUT CDAC_v3_0.switch_7.Z.t63 sky130_fd_pr__cap_mim_m3_1 l=6.88 w=6.88
X47 D_FlipFlop_7.Nand_Gate_1.Vout D_FlipFlop_7.Inverter_1.Vout VDD.t531 VDD.t529 sky130_fd_pr__pfet_g5v0d10v5 ad=0.4176 pd=3.46 as=0.4176 ps=3.46 w=1.44 l=0.72
X48 a_35135_56723# Ring_Counter_0.D_FlipFlop_4.Inverter_1.Vout.t2 Ring_Counter_0.D_FlipFlop_4.Nand_Gate_1.Vout.t2 GND.t41 sky130_fd_pr__nfet_g5v0d10v5 ad=0.4176 pd=3.46 as=0.4176 ps=3.46 w=1.44 l=1.44
X49 VDD.t710 D_FlipFlop_3.nPRE.t4 Ring_Counter_0.D_FlipFlop_7.3-input-nand_1.B VDD.t156 sky130_fd_pr__pfet_g5v0d10v5 ad=0.4176 pd=3.46 as=0.4176 ps=3.46 w=1.44 l=0.72
X50 VDD.t208 VDD.t207 Ring_Counter_0.D_FlipFlop_2.Qbar VDD.t126 sky130_fd_pr__pfet_g5v0d10v5 ad=0.4176 pd=3.46 as=0.4176 ps=3.46 w=1.44 l=0.72
X51 GND.t326 Ring_Counter_0.D_FlipFlop_12.3-input-nand_2.Vout.t4 a_9337_56723# GND.t62 sky130_fd_pr__nfet_g5v0d10v5 ad=0.4176 pd=3.46 as=0.4176 ps=3.46 w=1.44 l=1.44
X52 a_5773_58825# Ring_Counter_0.D_FlipFlop_13.3-input-nand_2.C.t4 Ring_Counter_0.D_FlipFlop_13.3-input-nand_2.Vout.t0 GND.t9 sky130_fd_pr__nfet_g5v0d10v5 ad=0.4176 pd=3.46 as=0.4176 ps=3.46 w=1.44 l=1.44
X53 GND.t212 EN.t2 a_10187_61411# GND.t43 sky130_fd_pr__nfet_g5v0d10v5 ad=0.4176 pd=3.46 as=0.4176 ps=3.46 w=1.44 l=1.44
X54 CDAC_v3_0.OUT CDAC_v3_0.switch_7.Z.t62 sky130_fd_pr__cap_mim_m3_1 l=6.88 w=6.88
X55 D_FlipFlop_5.CLK.t1 And_Gate_3.Nand_Gate_0.Vout GND.t307 GND.t306 sky130_fd_pr__nfet_g5v0d10v5 ad=0.4176 pd=3.46 as=0.4176 ps=3.46 w=1.44 l=1.44
X56 VDD.t700 EN.t3 D_FlipFlop_2.nPRE.t3 VDD.t111 sky130_fd_pr__pfet_g5v0d10v5 ad=0.4176 pd=3.46 as=0.4176 ps=3.46 w=1.44 l=0.72
X57 GND.t496 GND.t497 sky130_fd_pr__cap_mim_m3_1 l=6.88 w=6.88
X58 a_15496_48405# D_FlipFlop_5.3-input-nand_1.B a_14882_48405# GND.t48 sky130_fd_pr__nfet_g5v0d10v5 ad=0.4176 pd=3.46 as=0.4176 ps=3.46 w=1.44 l=1.44
X59 CDAC_v3_0.OUT CDAC_v3_0.switch_5.Z.t33 sky130_fd_pr__cap_mim_m3_1 l=6.88 w=6.88
X60 CDAC_v3_0.OUT CDAC_v3_0.switch_3.Z.t9 sky130_fd_pr__cap_mim_m3_1 l=6.88 w=6.88
X61 a_30721_56723# Ring_Counter_0.D_FlipFlop_6.Inverter_1.Vout.t2 Ring_Counter_0.D_FlipFlop_6.Nand_Gate_0.Vout GND.t22 sky130_fd_pr__nfet_g5v0d10v5 ad=0.4176 pd=3.46 as=0.4176 ps=3.46 w=1.44 l=1.44
X62 VDD.t588 D_FlipFlop_4.nPRE.t4 Ring_Counter_0.D_FlipFlop_10.Qbar.t2 VDD.t10 sky130_fd_pr__pfet_g5v0d10v5 ad=0.4176 pd=3.46 as=0.4176 ps=3.46 w=1.44 l=0.72
X63 CDAC_v3_0.OUT CDAC_v3_0.switch_6.Z.t125 sky130_fd_pr__cap_mim_m3_1 l=6.88 w=6.88
X64 VDD.t251 CLK.t2 Ring_Counter_0.D_FlipFlop_0.3-input-nand_0.Vout.t1 VDD.t190 sky130_fd_pr__pfet_g5v0d10v5 ad=0.4176 pd=3.46 as=0.4176 ps=3.46 w=1.44 l=0.72
X65 VDD.t534 D_FlipFlop_2.3-input-nand_2.C.t4 D_FlipFlop_2.Nand_Gate_1.Vout VDD.t0 sky130_fd_pr__pfet_g5v0d10v5 ad=0.4176 pd=3.46 as=0.4176 ps=3.46 w=1.44 l=0.72
X66 a_n11404_48405# D_FlipFlop_7.nPRE.t4 GND.t103 GND.t102 sky130_fd_pr__nfet_g5v0d10v5 ad=0.4176 pd=3.46 as=0.4176 ps=3.46 w=1.44 l=1.44
X67 D_FlipFlop_6.Nand_Gate_1.Vout D_FlipFlop_6.Inverter_1.Vout VDD.t443 VDD.t442 sky130_fd_pr__pfet_g5v0d10v5 ad=0.4176 pd=3.46 as=0.4176 ps=3.46 w=1.44 l=0.72
X68 VDD.t13 Ring_Counter_0.D_FlipFlop_3.Inverter_1.Vout.t2 Ring_Counter_0.D_FlipFlop_3.Nand_Gate_0.Vout VDD.t12 sky130_fd_pr__pfet_g5v0d10v5 ad=0.4176 pd=3.46 as=0.4176 ps=3.46 w=1.44 l=0.72
X69 CDAC_v3_0.OUT CDAC_v3_0.switch_7.Z.t61 sky130_fd_pr__cap_mim_m3_1 l=6.88 w=6.88
X70 VDD.t206 VDD.t205 Ring_Counter_0.D_FlipFlop_11.3-input-nand_0.Vout VDD.t48 sky130_fd_pr__pfet_g5v0d10v5 ad=0.4176 pd=3.46 as=0.4176 ps=3.46 w=1.44 l=0.72
X71 GND.t211 EN.t4 a_24443_61411# GND.t73 sky130_fd_pr__nfet_g5v0d10v5 ad=0.4176 pd=3.46 as=0.4176 ps=3.46 w=1.44 l=1.44
X72 D_FlipFlop_4.3-input-nand_1.Vout D_FlipFlop_4.CLK.t3 VDD.t484 VDD.t482 sky130_fd_pr__pfet_g5v0d10v5 ad=0.4176 pd=3.46 as=0.4176 ps=3.46 w=1.44 l=0.72
X73 Ring_Counter_0.D_FlipFlop_8.3-input-nand_0.Vout Nand_Gate_3.A.t4 VDD.t909 VDD.t213 sky130_fd_pr__pfet_g5v0d10v5 ad=0.4176 pd=3.46 as=0.4176 ps=3.46 w=1.44 l=0.72
X74 a_20879_61411# Ring_Counter_0.D_FlipFlop_8.3-input-nand_1.B a_20879_60797# GND.t25 sky130_fd_pr__nfet_g5v0d10v5 ad=0.4176 pd=3.46 as=0.4176 ps=3.46 w=1.44 l=1.44
X75 a_41413_61411# D_FlipFlop_1.nPRE.t4 a_41413_60797# GND.t28 sky130_fd_pr__nfet_g5v0d10v5 ad=0.4176 pd=3.46 as=0.4176 ps=3.46 w=1.44 l=1.44
X76 a_34285_58825# Ring_Counter_0.D_FlipFlop_5.3-input-nand_2.C.t4 Ring_Counter_0.D_FlipFlop_5.3-input-nand_2.Vout.t2 GND.t83 sky130_fd_pr__nfet_g5v0d10v5 ad=0.4176 pd=3.46 as=0.4176 ps=3.46 w=1.44 l=1.44
X77 VDD.t584 And_Gate_1.A And_Gate_1.Nand_Gate_0.Vout VDD.t583 sky130_fd_pr__pfet_g5v0d10v5 ad=0.4176 pd=3.46 as=0.4176 ps=3.46 w=1.44 l=0.72
X78 VDD.t711 D_FlipFlop_3.nPRE.t5 Ring_Counter_0.D_FlipFlop_6.Qbar VDD.t140 sky130_fd_pr__pfet_g5v0d10v5 ad=0.4176 pd=3.46 as=0.4176 ps=3.46 w=1.44 l=0.72
X79 VDD.t463 Ring_Counter_0.D_FlipFlop_12.3-input-nand_2.Vout.t5 Ring_Counter_0.D_FlipFlop_12.3-input-nand_2.C.t1 VDD.t92 sky130_fd_pr__pfet_g5v0d10v5 ad=0.4176 pd=3.46 as=0.4176 ps=3.46 w=1.44 l=0.72
X80 D_FlipFlop_7.Inverter_1.Vout D_FlipFlop_7.CLK.t2 GND.t244 GND.t243 sky130_fd_pr__nfet_g5v0d10v5 ad=0.4176 pd=3.46 as=0.4176 ps=3.46 w=1.44 l=1.44
X81 Ring_Counter_0.D_FlipFlop_15.3-input-nand_2.C.t0 Ring_Counter_0.D_FlipFlop_15.3-input-nand_1.Vout.t4 VDD.t378 VDD.t6 sky130_fd_pr__pfet_g5v0d10v5 ad=0.4176 pd=3.46 as=0.4176 ps=3.46 w=1.44 l=0.72
X82 CDAC_v3_0.OUT CDAC_v3_0.switch_6.Z.t124 sky130_fd_pr__cap_mim_m3_1 l=6.88 w=6.88
X83 VDD.t807 Ring_Counter_0.D_FlipFlop_2.3-input-nand_2.C.t4 Ring_Counter_0.D_FlipFlop_2.3-input-nand_2.Vout.t2 VDD.t123 sky130_fd_pr__pfet_g5v0d10v5 ad=0.4176 pd=3.46 as=0.4176 ps=3.46 w=1.44 l=0.72
X84 CDAC_v3_0.OUT CDAC_v3_0.switch_7.Z.t60 sky130_fd_pr__cap_mim_m3_1 l=6.88 w=6.88
X85 Ring_Counter_0.D_FlipFlop_10.Nand_Gate_0.Vout Ring_Counter_0.D_FlipFlop_10.3-input-nand_2.Vout.t4 VDD.t374 VDD.t57 sky130_fd_pr__pfet_g5v0d10v5 ad=0.4176 pd=3.46 as=0.4176 ps=3.46 w=1.44 l=0.72
X86 VDD.t885 D_FlipFlop_0.3-input-nand_0.Vout D_FlipFlop_0.3-input-nand_2.Vout.t3 VDD.t618 sky130_fd_pr__pfet_g5v0d10v5 ad=0.4176 pd=3.46 as=0.4176 ps=3.46 w=1.44 l=0.72
X87 GND.t521 VDD.t927 a_13751_55365# GND.t7 sky130_fd_pr__nfet_g5v0d10v5 ad=0.4176 pd=3.46 as=0.4176 ps=3.46 w=1.44 l=1.44
X88 a_43754_51119# D_FlipFlop_1.3-input-nand_0.Vout a_43140_51119# GND.t320 sky130_fd_pr__nfet_g5v0d10v5 ad=0.4176 pd=3.46 as=0.4176 ps=3.46 w=1.44 l=1.44
X89 a_n4919_60797# CLK.t3 Ring_Counter_0.D_FlipFlop_16.3-input-nand_0.Vout GND.t53 sky130_fd_pr__nfet_g5v0d10v5 ad=0.4176 pd=3.46 as=0.4176 ps=3.46 w=1.44 l=1.44
X90 a_40815_52049# And_Gate_6.A GND.t218 GND.t217 sky130_fd_pr__nfet_g5v0d10v5 ad=0.4176 pd=3.46 as=0.4176 ps=3.46 w=1.44 l=1.44
X91 a_n7633_59439# Ring_Counter_0.D_FlipFlop_16.3-input-nand_1.Vout.t4 a_n7633_58825# GND.t88 sky130_fd_pr__nfet_g5v0d10v5 ad=0.4176 pd=3.46 as=0.4176 ps=3.46 w=1.44 l=1.44
X92 Q6.t1 D_FlipFlop_1.Qbar a_47828_51119# GND.t281 sky130_fd_pr__nfet_g5v0d10v5 ad=0.4176 pd=3.46 as=0.4176 ps=3.46 w=1.44 l=1.44
X93 a_48541_58825# Ring_Counter_0.D_FlipFlop_1.3-input-nand_2.C.t4 Ring_Counter_0.D_FlipFlop_1.3-input-nand_2.Vout.t3 GND.t84 sky130_fd_pr__nfet_g5v0d10v5 ad=0.4176 pd=3.46 as=0.4176 ps=3.46 w=1.44 l=1.44
X94 Ring_Counter_0.D_FlipFlop_3.Qbar.t2 Ring_Counter_0.D_FlipFlop_3.Nand_Gate_1.Vout.t3 VDD.t52 VDD.t51 sky130_fd_pr__pfet_g5v0d10v5 ad=0.4176 pd=3.46 as=0.4176 ps=3.46 w=1.44 l=0.72
X95 CDAC_v3_0.OUT CDAC_v3_0.switch_7.Z.t59 sky130_fd_pr__cap_mim_m3_1 l=6.88 w=6.88
X96 And_Gate_1.Nand_Gate_0.Vout CLK.t4 VDD.t253 VDD.t252 sky130_fd_pr__pfet_g5v0d10v5 ad=0.4176 pd=3.46 as=0.4176 ps=3.46 w=1.44 l=0.72
X97 a_27157_60797# CLK.t5 Ring_Counter_0.D_FlipFlop_7.3-input-nand_0.Vout GND.t30 sky130_fd_pr__nfet_g5v0d10v5 ad=0.4176 pd=3.46 as=0.4176 ps=3.46 w=1.44 l=1.44
X98 a_27542_45397# Q5.t4 GND.t183 GND.t182 sky130_fd_pr__nfet_g5v0d10v5 ad=0.4176 pd=3.46 as=0.4176 ps=3.46 w=1.44 l=1.44
X99 CDAC_v3_0.switch_5.Z.t2 a_27542_45397# VDD.t631 VDD.t630 sky130_fd_pr__pfet_g5v0d10v5 ad=0.4176 pd=3.46 as=0.4176 ps=3.46 w=1.44 l=0.72
X100 VDD.t593 Ring_Counter_0.D_FlipFlop_4.3-input-nand_2.Vout.t4 Ring_Counter_0.D_FlipFlop_4.3-input-nand_2.C.t1 VDD.t53 sky130_fd_pr__pfet_g5v0d10v5 ad=0.4176 pd=3.46 as=0.4176 ps=3.46 w=1.44 l=0.72
X101 Ring_Counter_0.D_FlipFlop_1.3-input-nand_0.Vout FFCLR.t5 VDD.t387 VDD.t210 sky130_fd_pr__pfet_g5v0d10v5 ad=0.4176 pd=3.46 as=0.4176 ps=3.46 w=1.44 l=0.72
X102 D_FlipFlop_3.Inverter_1.Vout D_FlipFlop_3.CLK.t2 VDD.t900 VDD.t899 sky130_fd_pr__pfet_g5v0d10v5 ad=0.4176 pd=3.46 as=0.4176 ps=3.46 w=1.44 l=0.72
X103 D_FlipFlop_0.3-input-nand_2.Vout.t2 FFCLR.t6 VDD.t389 VDD.t388 sky130_fd_pr__pfet_g5v0d10v5 ad=0.4176 pd=3.46 as=0.4176 ps=3.46 w=1.44 l=0.72
X104 GND.t522 VDD.t928 a_6623_59439# GND.t92 sky130_fd_pr__nfet_g5v0d10v5 ad=0.4176 pd=3.46 as=0.4176 ps=3.46 w=1.44 l=1.44
X105 a_49391_60797# CLK.t6 Ring_Counter_0.D_FlipFlop_0.3-input-nand_1.Vout GND.t95 sky130_fd_pr__nfet_g5v0d10v5 ad=0.4176 pd=3.46 as=0.4176 ps=3.46 w=1.44 l=1.44
X106 VDD.t417 Ring_Counter_0.D_FlipFlop_6.3-input-nand_2.C.t4 Ring_Counter_0.D_FlipFlop_6.3-input-nand_2.Vout.t0 VDD.t22 sky130_fd_pr__pfet_g5v0d10v5 ad=0.4176 pd=3.46 as=0.4176 ps=3.46 w=1.44 l=0.72
X107 CDAC_v3_0.OUT CDAC_v3_0.switch_6.Z.t123 sky130_fd_pr__cap_mim_m3_1 l=6.88 w=6.88
X108 VDD.t873 D_FlipFlop_0.Nand_Gate_0.Vout Q7.t3 VDD.t371 sky130_fd_pr__pfet_g5v0d10v5 ad=0.4176 pd=3.46 as=0.4176 ps=3.46 w=1.44 l=0.72
X109 VDD.t517 Ring_Counter_0.D_FlipFlop_14.Inverter_1.Vout.t2 Ring_Counter_0.D_FlipFlop_14.Nand_Gate_0.Vout VDD.t199 sky130_fd_pr__pfet_g5v0d10v5 ad=0.4176 pd=3.46 as=0.4176 ps=3.46 w=1.44 l=0.72
X110 CDAC_v3_0.OUT CDAC_v3_0.switch_6.Z.t122 sky130_fd_pr__cap_mim_m3_1 l=6.88 w=6.88
X111 VDD.t89 D_FlipFlop_6.nPRE.t4 Ring_Counter_0.D_FlipFlop_13.3-input-nand_1.B VDD.t24 sky130_fd_pr__pfet_g5v0d10v5 ad=0.4176 pd=3.46 as=0.4176 ps=3.46 w=1.44 l=0.72
X112 GND.t494 GND.t495 sky130_fd_pr__cap_mim_m3_1 l=6.88 w=6.88
X113 a_41168_51119# FFCLR.t7 GND.t187 GND.t186 sky130_fd_pr__nfet_g5v0d10v5 ad=0.4176 pd=3.46 as=0.4176 ps=3.46 w=1.44 l=1.44
X114 a_25616_51119# D_FlipFlop_3.nPRE.t6 GND.t592 GND.t591 sky130_fd_pr__nfet_g5v0d10v5 ad=0.4176 pd=3.46 as=0.4176 ps=3.46 w=1.44 l=1.44
X115 CDAC_v3_0.OUT CDAC_v3_0.switch_6.Z.t121 sky130_fd_pr__cap_mim_m3_1 l=6.88 w=6.88
X116 D_FlipFlop_0.3-input-nand_2.Vout.t0 D_FlipFlop_0.3-input-nand_2.C.t4 VDD.t325 VDD.t4 sky130_fd_pr__pfet_g5v0d10v5 ad=0.4176 pd=3.46 as=0.4176 ps=3.46 w=1.44 l=0.72
X117 CDAC_v3_0.OUT CDAC_v3_0.switch_6.Z.t120 sky130_fd_pr__cap_mim_m3_1 l=6.88 w=6.88
X118 GND.t523 VDD.t929 a_44977_61411# GND.t149 sky130_fd_pr__nfet_g5v0d10v5 ad=0.4176 pd=3.46 as=0.4176 ps=3.46 w=1.44 l=1.44
X119 a_49577_52049# And_Gate_7.A GND.t643 GND.t642 sky130_fd_pr__nfet_g5v0d10v5 ad=0.4176 pd=3.46 as=0.4176 ps=3.46 w=1.44 l=1.44
X120 a_2209_61411# Nand_Gate_0.A.t4 a_2209_60797# GND.t36 sky130_fd_pr__nfet_g5v0d10v5 ad=0.4176 pd=3.46 as=0.4176 ps=3.46 w=1.44 l=1.44
X121 a_16465_54751# Ring_Counter_0.D_FlipFlop_10.Qbar.t4 D_FlipFlop_4.nPRE.t0 GND.t32 sky130_fd_pr__nfet_g5v0d10v5 ad=0.4176 pd=3.46 as=0.4176 ps=3.46 w=1.44 l=1.44
X122 GND.t524 VDD.t930 a_38699_55365# GND.t55 sky130_fd_pr__nfet_g5v0d10v5 ad=0.4176 pd=3.46 as=0.4176 ps=3.46 w=1.44 l=1.44
X123 CDAC_v3_0.OUT CDAC_v3_0.switch_7.Z.t58 sky130_fd_pr__cap_mim_m3_1 l=6.88 w=6.88
X124 a_8092_51119# D_FlipFlop_4.nPRE.t5 GND.t347 GND.t346 sky130_fd_pr__nfet_g5v0d10v5 ad=0.4176 pd=3.46 as=0.4176 ps=3.46 w=1.44 l=1.44
X125 VDD.t254 CLK.t7 Ring_Counter_0.D_FlipFlop_16.3-input-nand_0.Vout VDD.t76 sky130_fd_pr__pfet_g5v0d10v5 ad=0.4176 pd=3.46 as=0.4176 ps=3.46 w=1.44 l=0.72
X126 a_51773_21431.t0 Vin.t0 a_50502_29172.t0 Vbias.t0 sky130_fd_pr__nfet_g5v0d10v5 ad=4.35 pd=30.58 as=4.35 ps=30.58 w=15 l=1
X127 VDD.t533 Ring_Counter_0.D_FlipFlop_7.Qbar Nand_Gate_3.A.t1 VDD.t156 sky130_fd_pr__pfet_g5v0d10v5 ad=0.4176 pd=3.46 as=0.4176 ps=3.46 w=1.44 l=0.72
X128 a_20029_56723# Ring_Counter_0.D_FlipFlop_9.Inverter_1.Vout.t2 Ring_Counter_0.D_FlipFlop_9.Nand_Gate_0.Vout GND.t50 sky130_fd_pr__nfet_g5v0d10v5 ad=0.4176 pd=3.46 as=0.4176 ps=3.46 w=1.44 l=1.44
X129 GND.t323 Nand_Gate_3.A.t5 Ring_Counter_0.D_FlipFlop_8.3-input-nand_1.B GND.t8 sky130_fd_pr__nfet_g5v0d10v5 ad=0.4176 pd=3.46 as=0.4176 ps=3.46 w=1.44 l=1.44
X130 GND.t492 GND.t493 sky130_fd_pr__cap_mim_m3_1 l=6.88 w=6.88
X131 Q5.t0 D_FlipFlop_2.nPRE.t4 VDD.t739 VDD.t390 sky130_fd_pr__pfet_g5v0d10v5 ad=0.4176 pd=3.46 as=0.4176 ps=3.46 w=1.44 l=0.72
X132 GND.t525 VDD.t931 a_35135_59439# GND.t41 sky130_fd_pr__nfet_g5v0d10v5 ad=0.4176 pd=3.46 as=0.4176 ps=3.46 w=1.44 l=1.44
X133 Q7.t0 D_FlipFlop_0.Qbar VDD.t524 VDD.t523 sky130_fd_pr__pfet_g5v0d10v5 ad=0.4176 pd=3.46 as=0.4176 ps=3.46 w=1.44 l=0.72
X134 a_42263_56723# Ring_Counter_0.D_FlipFlop_2.Inverter_1.Vout.t2 Ring_Counter_0.D_FlipFlop_2.Nand_Gate_1.Vout.t1 GND.t70 sky130_fd_pr__nfet_g5v0d10v5 ad=0.4176 pd=3.46 as=0.4176 ps=3.46 w=1.44 l=1.44
X135 VDD.t740 D_FlipFlop_2.nPRE.t5 Ring_Counter_0.D_FlipFlop_5.3-input-nand_1.B VDD.t147 sky130_fd_pr__pfet_g5v0d10v5 ad=0.4176 pd=3.46 as=0.4176 ps=3.46 w=1.44 l=0.72
X136 a_n56_51119# D_FlipFlop_6.3-input-nand_0.Vout a_n670_51119# GND.t153 sky130_fd_pr__nfet_g5v0d10v5 ad=0.4176 pd=3.46 as=0.4176 ps=3.46 w=1.44 l=1.44
X137 a_52105_59439# Ring_Counter_0.D_FlipFlop_0.3-input-nand_0.Vout.t4 a_52105_58825# GND.t58 sky130_fd_pr__nfet_g5v0d10v5 ad=0.4176 pd=3.46 as=0.4176 ps=3.46 w=1.44 l=1.44
X138 VDD.t699 EN.t5 Ring_Counter_0.D_FlipFlop_0.Qbar VDD.t101 sky130_fd_pr__pfet_g5v0d10v5 ad=0.4176 pd=3.46 as=0.4176 ps=3.46 w=1.44 l=0.72
X139 a_9337_58825# Ring_Counter_0.D_FlipFlop_12.3-input-nand_2.C.t4 Ring_Counter_0.D_FlipFlop_12.3-input-nand_2.Vout.t0 GND.t62 sky130_fd_pr__nfet_g5v0d10v5 ad=0.4176 pd=3.46 as=0.4176 ps=3.46 w=1.44 l=1.44
X140 Ring_Counter_0.D_FlipFlop_11.3-input-nand_0.Vout D_FlipFlop_4.nPRE.t6 VDD.t589 VDD.t48 sky130_fd_pr__pfet_g5v0d10v5 ad=0.4176 pd=3.46 as=0.4176 ps=3.46 w=1.44 l=0.72
X141 VDD.t204 VDD.t203 Ring_Counter_0.D_FlipFlop_14.Qbar.t0 VDD.t116 sky130_fd_pr__pfet_g5v0d10v5 ad=0.4176 pd=3.46 as=0.4176 ps=3.46 w=1.44 l=0.72
X142 GND.t57 Ring_Counter_0.D_FlipFlop_10.3-input-nand_2.C.t4 a_13751_56723# GND.t7 sky130_fd_pr__nfet_g5v0d10v5 ad=0.4176 pd=3.46 as=0.4176 ps=3.46 w=1.44 l=1.44
X143 GND.t700 EN.t6 a_30721_59439# GND.t22 sky130_fd_pr__nfet_g5v0d10v5 ad=0.4176 pd=3.46 as=0.4176 ps=3.46 w=1.44 l=1.44
X144 VDD.t255 CLK.t8 Ring_Counter_0.D_FlipFlop_10.Inverter_1.Vout.t0 VDD.t10 sky130_fd_pr__pfet_g5v0d10v5 ad=0.4176 pd=3.46 as=0.4176 ps=3.46 w=1.44 l=0.72
X145 VDD.t619 D_FlipFlop_0.3-input-nand_1.Vout D_FlipFlop_0.3-input-nand_2.C.t0 VDD.t618 sky130_fd_pr__pfet_g5v0d10v5 ad=0.4176 pd=3.46 as=0.4176 ps=3.46 w=1.44 l=0.72
X146 Ring_Counter_0.D_FlipFlop_16.Qbar Ring_Counter_0.D_FlipFlop_16.Nand_Gate_1.Vout.t3 VDD.t846 VDD.t175 sky130_fd_pr__pfet_g5v0d10v5 ad=0.4176 pd=3.46 as=0.4176 ps=3.46 w=1.44 l=0.72
X147 CDAC_v3_0.OUT CDAC_v3_0.switch_6.Z.t119 sky130_fd_pr__cap_mim_m3_1 l=6.88 w=6.88
X148 D_FlipFlop_1.3-input-nand_0.Vout D_FlipFlop_1.CLK.t2 VDD.t837 VDD.t836 sky130_fd_pr__pfet_g5v0d10v5 ad=0.4176 pd=3.46 as=0.4176 ps=3.46 w=1.44 l=0.72
X149 VDD.t787 D_FlipFlop_5.nPRE.t4 Ring_Counter_0.D_FlipFlop_8.Qbar.t1 VDD.t29 sky130_fd_pr__pfet_g5v0d10v5 ad=0.4176 pd=3.46 as=0.4176 ps=3.46 w=1.44 l=0.72
X150 VDD.t436 Nand_Gate_6.A.t5 Ring_Counter_0.D_FlipFlop_9.Qbar VDD.t83 sky130_fd_pr__pfet_g5v0d10v5 ad=0.4176 pd=3.46 as=0.4176 ps=3.46 w=1.44 l=0.72
X151 VDD.t698 EN.t7 Ring_Counter_0.D_FlipFlop_3.3-input-nand_2.Vout.t3 VDD.t12 sky130_fd_pr__pfet_g5v0d10v5 ad=0.4176 pd=3.46 as=0.4176 ps=3.46 w=1.44 l=0.72
X152 D_FlipFlop_4.Nand_Gate_0.Vout D_FlipFlop_4.Inverter_1.Vout a_10808_51119# GND.t229 sky130_fd_pr__nfet_g5v0d10v5 ad=0.4176 pd=3.46 as=0.4176 ps=3.46 w=1.44 l=1.44
X153 CDAC_v3_0.OUT CDAC_v3_0.switch_7.Z.t57 sky130_fd_pr__cap_mim_m3_1 l=6.88 w=6.88
X154 Q1.t2 D_FlipFlop_6.nPRE.t5 VDD.t91 VDD.t90 sky130_fd_pr__pfet_g5v0d10v5 ad=0.4176 pd=3.46 as=0.4176 ps=3.46 w=1.44 l=0.72
X155 a_45827_59439# Ring_Counter_0.D_FlipFlop_1.3-input-nand_1.Vout.t4 a_45827_58825# GND.t90 sky130_fd_pr__nfet_g5v0d10v5 ad=0.4176 pd=3.46 as=0.4176 ps=3.46 w=1.44 l=1.44
X156 GND.t341 EN.t8 a_31571_61411# GND.t21 sky130_fd_pr__nfet_g5v0d10v5 ad=0.4176 pd=3.46 as=0.4176 ps=3.46 w=1.44 l=1.44
X157 GND.t703 EN.t9 a_28007_61411# GND.t140 sky130_fd_pr__nfet_g5v0d10v5 ad=0.4176 pd=3.46 as=0.4176 ps=3.46 w=1.44 l=1.44
X158 a_30304_48405# D_FlipFlop_3.Nand_Gate_1.Vout a_29690_48405# GND.t339 sky130_fd_pr__nfet_g5v0d10v5 ad=0.4176 pd=3.46 as=0.4176 ps=3.46 w=1.44 l=1.44
X159 CDAC_v3_0.OUT CDAC_v3_0.switch_6.Z.t118 sky130_fd_pr__cap_mim_m3_1 l=6.88 w=6.88
X160 Q1.t0 D_FlipFlop_6.Qbar VDD.t309 VDD.t308 sky130_fd_pr__pfet_g5v0d10v5 ad=0.4176 pd=3.46 as=0.4176 ps=3.46 w=1.44 l=0.72
X161 VDD.t256 CLK.t9 Ring_Counter_0.D_FlipFlop_6.Inverter_1.Vout.t0 VDD.t140 sky130_fd_pr__pfet_g5v0d10v5 ad=0.4176 pd=3.46 as=0.4176 ps=3.46 w=1.44 l=0.72
X162 a_5773_60797# CLK.t10 Ring_Counter_0.D_FlipFlop_13.3-input-nand_0.Vout GND.t9 sky130_fd_pr__nfet_g5v0d10v5 ad=0.4176 pd=3.46 as=0.4176 ps=3.46 w=1.44 l=1.44
X163 a_n670_51119# D_FlipFlop_6.nPRE.t6 GND.t60 GND.t59 sky130_fd_pr__nfet_g5v0d10v5 ad=0.4176 pd=3.46 as=0.4176 ps=3.46 w=1.44 l=1.44
X164 D_FlipFlop_4.3-input-nand_2.Vout.t0 D_FlipFlop_4.3-input-nand_2.C.t4 VDD.t826 VDD.t74 sky130_fd_pr__pfet_g5v0d10v5 ad=0.4176 pd=3.46 as=0.4176 ps=3.46 w=1.44 l=0.72
X165 CDAC_v3_0.OUT CDAC_v3_0.switch_5.Z.t32 sky130_fd_pr__cap_mim_m3_1 l=6.88 w=6.88
X166 D_FlipFlop_0.3-input-nand_2.C.t1 EN.t10 VDD.t697 VDD.t388 sky130_fd_pr__pfet_g5v0d10v5 ad=0.4176 pd=3.46 as=0.4176 ps=3.46 w=1.44 l=0.72
X167 VDD.t372 D_FlipFlop_0.Nand_Gate_1.Vout D_FlipFlop_0.Qbar VDD.t371 sky130_fd_pr__pfet_g5v0d10v5 ad=0.4176 pd=3.46 as=0.4176 ps=3.46 w=1.44 l=0.72
X168 a_19282_52049# D_FlipFlop_5.nPRE.t5 And_Gate_3.A GND.t609 sky130_fd_pr__nfet_g5v0d10v5 ad=0.4176 pd=3.46 as=0.4176 ps=3.46 w=1.44 l=1.44
X169 a_47214_48405# FFCLR.t8 GND.t189 GND.t188 sky130_fd_pr__nfet_g5v0d10v5 ad=0.4176 pd=3.46 as=0.4176 ps=3.46 w=1.44 l=1.44
X170 D_FlipFlop_0.3-input-nand_2.C.t2 D_FlipFlop_0.3-input-nand_2.Vout.t4 VDD.t5 VDD.t4 sky130_fd_pr__pfet_g5v0d10v5 ad=0.4176 pd=3.46 as=0.4176 ps=3.46 w=1.44 l=0.72
X171 VDD.t19 D_FlipFlop_7.D.t4 D_FlipFlop_3.3-input-nand_0.Vout VDD.t18 sky130_fd_pr__pfet_g5v0d10v5 ad=0.4176 pd=3.46 as=0.4176 ps=3.46 w=1.44 l=0.72
X172 CDAC_v3_0.OUT CDAC_v3_0.switch_6.Z.t117 sky130_fd_pr__cap_mim_m3_1 l=6.88 w=6.88
X173 VDD.t239 CLK.t11 Ring_Counter_0.D_FlipFlop_15.3-input-nand_1.Vout.t1 VDD.t6 sky130_fd_pr__pfet_g5v0d10v5 ad=0.4176 pd=3.46 as=0.4176 ps=3.46 w=1.44 l=0.72
X174 GND.t490 GND.t491 sky130_fd_pr__cap_mim_m3_1 l=6.88 w=6.88
X175 Ring_Counter_0.D_FlipFlop_9.Nand_Gate_0.Vout Ring_Counter_0.D_FlipFlop_9.3-input-nand_2.Vout.t4 VDD.t414 VDD.t72 sky130_fd_pr__pfet_g5v0d10v5 ad=0.4176 pd=3.46 as=0.4176 ps=3.46 w=1.44 l=0.72
X176 D_FlipFlop_6.3-input-nand_1.B D_FlipFlop_7.D.t5 GND.t12 GND.t11 sky130_fd_pr__nfet_g5v0d10v5 ad=0.4176 pd=3.46 as=0.4176 ps=3.46 w=1.44 l=1.44
X177 GND.t526 VDD.t932 a_17315_55365# GND.t44 sky130_fd_pr__nfet_g5v0d10v5 ad=0.4176 pd=3.46 as=0.4176 ps=3.46 w=1.44 l=1.44
X178 GND.t327 Ring_Counter_0.D_FlipFlop_3.3-input-nand_2.C.t4 a_38699_56723# GND.t55 sky130_fd_pr__nfet_g5v0d10v5 ad=0.4176 pd=3.46 as=0.4176 ps=3.46 w=1.44 l=1.44
X179 CDAC_v3_0.OUT CDAC_v3_0.switch_6.Z.t116 sky130_fd_pr__cap_mim_m3_1 l=6.88 w=6.88
X180 GND.t488 GND.t489 sky130_fd_pr__cap_mim_m3_1 l=6.88 w=6.88
X181 CDAC_v3_0.OUT CDAC_v3_0.switch_6.Z.t115 sky130_fd_pr__cap_mim_m3_1 l=6.88 w=6.88
X182 a_3059_56723# Ring_Counter_0.D_FlipFlop_13.Inverter_1.Vout.t2 Ring_Counter_0.D_FlipFlop_13.Nand_Gate_1.Vout.t2 GND.t24 sky130_fd_pr__nfet_g5v0d10v5 ad=0.4176 pd=3.46 as=0.4176 ps=3.46 w=1.44 l=1.44
X183 VDD.t502 D_FlipFlop_6.3-input-nand_2.Vout.t4 D_FlipFlop_6.Nand_Gate_0.Vout VDD.t501 sky130_fd_pr__pfet_g5v0d10v5 ad=0.4176 pd=3.46 as=0.4176 ps=3.46 w=1.44 l=0.72
X184 CDAC_v3_0.OUT CDAC_v3_0.switch_7.Z.t56 sky130_fd_pr__cap_mim_m3_1 l=6.88 w=6.88
X185 D_FlipFlop_0.3-input-nand_1.Vout D_FlipFlop_0.CLK.t3 a_50544_48405# GND.t261 sky130_fd_pr__nfet_g5v0d10v5 ad=0.4176 pd=3.46 as=0.4176 ps=3.46 w=1.44 l=1.44
X186 D_FlipFlop_2.3-input-nand_2.C.t3 D_FlipFlop_2.3-input-nand_2.Vout.t5 a_34992_48405# GND.t0 sky130_fd_pr__nfet_g5v0d10v5 ad=0.4176 pd=3.46 as=0.4176 ps=3.46 w=1.44 l=1.44
X187 GND.t704 EN.t11 a_12901_55365# GND.t39 sky130_fd_pr__nfet_g5v0d10v5 ad=0.4176 pd=3.46 as=0.4176 ps=3.46 w=1.44 l=1.44
X188 CDAC_v3_0.OUT CDAC_v3_0.switch_6.Z.t114 sky130_fd_pr__cap_mim_m3_1 l=6.88 w=6.88
X189 CDAC_v3_0.OUT CDAC_v3_0.switch_6.Z.t113 sky130_fd_pr__cap_mim_m3_1 l=6.88 w=6.88
X190 VDD.t555 Ring_Counter_0.D_FlipFlop_13.Qbar Nand_Gate_0.A.t0 VDD.t24 sky130_fd_pr__pfet_g5v0d10v5 ad=0.4176 pd=3.46 as=0.4176 ps=3.46 w=1.44 l=0.72
X191 a_34285_60797# CLK.t12 Ring_Counter_0.D_FlipFlop_5.3-input-nand_0.Vout GND.t83 sky130_fd_pr__nfet_g5v0d10v5 ad=0.4176 pd=3.46 as=0.4176 ps=3.46 w=1.44 l=1.44
X192 D_FlipFlop_2.Qbar FFCLR.t9 VDD.t391 VDD.t390 sky130_fd_pr__pfet_g5v0d10v5 ad=0.4176 pd=3.46 as=0.4176 ps=3.46 w=1.44 l=0.72
X193 Ring_Counter_0.D_FlipFlop_15.3-input-nand_2.Vout.t0 Ring_Counter_0.D_FlipFlop_15.3-input-nand_0.Vout VDD.t580 VDD.t8 sky130_fd_pr__pfet_g5v0d10v5 ad=0.4176 pd=3.46 as=0.4176 ps=3.46 w=1.44 l=0.72
X194 VDD.t696 EN.t12 D_FlipFlop_5.nPRE.t2 VDD.t213 sky130_fd_pr__pfet_g5v0d10v5 ad=0.4176 pd=3.46 as=0.4176 ps=3.46 w=1.44 l=0.72
X195 CDAC_v3_0.OUT CDAC_v3_0.switch_6.Z.t112 sky130_fd_pr__cap_mim_m3_1 l=6.88 w=6.88
X196 VDD.t602 Ring_Counter_0.D_FlipFlop_2.3-input-nand_2.Vout.t4 Ring_Counter_0.D_FlipFlop_2.3-input-nand_2.C.t3 VDD.t126 sky130_fd_pr__pfet_g5v0d10v5 ad=0.4176 pd=3.46 as=0.4176 ps=3.46 w=1.44 l=0.72
X197 D_FlipFlop_0.Qbar Q7.t4 VDD.t910 VDD.t523 sky130_fd_pr__pfet_g5v0d10v5 ad=0.4176 pd=3.46 as=0.4176 ps=3.46 w=1.44 l=0.72
X198 VDD.t695 EN.t13 Ring_Counter_0.D_FlipFlop_14.3-input-nand_2.Vout.t1 VDD.t199 sky130_fd_pr__pfet_g5v0d10v5 ad=0.4176 pd=3.46 as=0.4176 ps=3.46 w=1.44 l=0.72
X199 VDD.t448 Q1.t4 CDAC_v3_0.switch_0.Z.t0 GND.t245 sky130_fd_pr__nfet_g5v0d10v5 ad=0.4176 pd=3.46 as=0.4176 ps=3.46 w=1.44 l=1.44
X200 CDAC_v3_0.OUT CDAC_v3_0.switch_7.Z.t55 sky130_fd_pr__cap_mim_m3_1 l=6.88 w=6.88
X201 VDD.t841 Ring_Counter_0.D_FlipFlop_4.3-input-nand_2.C.t4 Ring_Counter_0.D_FlipFlop_4.3-input-nand_2.Vout.t3 VDD.t111 sky130_fd_pr__pfet_g5v0d10v5 ad=0.4176 pd=3.46 as=0.4176 ps=3.46 w=1.44 l=0.72
X202 Ring_Counter_0.D_FlipFlop_10.Nand_Gate_1.Vout.t2 Ring_Counter_0.D_FlipFlop_10.3-input-nand_2.C.t5 VDD.t851 VDD.t10 sky130_fd_pr__pfet_g5v0d10v5 ad=0.4176 pd=3.46 as=0.4176 ps=3.46 w=1.44 l=0.72
X203 CDAC_v3_0.OUT CDAC_v3_0.switch_2.Z.t5 sky130_fd_pr__cap_mim_m3_1 l=6.88 w=6.88
X204 D_FlipFlop_3.3-input-nand_0.Vout D_FlipFlop_3.CLK.t3 VDD.t901 VDD.t257 sky130_fd_pr__pfet_g5v0d10v5 ad=0.4176 pd=3.46 as=0.4176 ps=3.46 w=1.44 l=0.72
X205 VDD.t802 Nand_Gate_2.A.t4 Ring_Counter_0.D_FlipFlop_12.3-input-nand_1.B VDD.t135 sky130_fd_pr__pfet_g5v0d10v5 ad=0.4176 pd=3.46 as=0.4176 ps=3.46 w=1.44 l=0.72
X206 a_n7633_61411# Ring_Counter_0.D_FlipFlop_16.3-input-nand_1.B a_n7633_60797# GND.t88 sky130_fd_pr__nfet_g5v0d10v5 ad=0.4176 pd=3.46 as=0.4176 ps=3.46 w=1.44 l=1.44
X207 D_FlipFlop_5.3-input-nand_1.B D_FlipFlop_7.D.t6 GND.t14 GND.t13 sky130_fd_pr__nfet_g5v0d10v5 ad=0.4176 pd=3.46 as=0.4176 ps=3.46 w=1.44 l=1.44
X208 D_FlipFlop_7.Qbar Q0.t5 a_n4744_48405# GND.t259 sky130_fd_pr__nfet_g5v0d10v5 ad=0.4176 pd=3.46 as=0.4176 ps=3.46 w=1.44 l=1.44
X209 CDAC_v3_0.OUT CDAC_v3_0.switch_7.Z.t54 sky130_fd_pr__cap_mim_m3_1 l=6.88 w=6.88