* NGSPICE file created from SAR-ADC-using-Sky130-PDK.ext - technology: sky130A

.subckt SAR-ADC-using-Sky130-PDK VDD Vin Q0 Vbias EN Q1 CLK Q2 Q3 Q4 Q5 Q6 Q7 GND
X0 a_49391_58825# Ring_Counter_0.D_FlipFlop_0.3-input-nand_2.Vout.t4 Ring_Counter_0.D_FlipFlop_0.3-input-nand_2.C.t1 GND.t28 sky130_fd_pr__nfet_g5v0d10v5 ad=0.4176 pd=3.46 as=0.4176 ps=3.46 w=1.44 l=1.44
X1 GND.t320 EN.t0 a_9337_55365# GND.t62 sky130_fd_pr__nfet_g5v0d10v5 ad=0.4176 pd=3.46 as=0.4176 ps=3.46 w=1.44 l=1.44
X2 GND.t697 Q0.t4 CDAC_v3_0.switch_8.Z.t3 VDD.t632 sky130_fd_pr__pfet_g5v0d10v5 ad=0.4176 pd=3.46 as=0.4176 ps=3.46 w=1.44 l=0.72
X3 a_n1355_54751# Ring_Counter_0.D_FlipFlop_15.Qbar.t4 Nand_Gate_1.A.t3 GND.t10 sky130_fd_pr__nfet_g5v0d10v5 ad=0.4176 pd=3.46 as=0.4176 ps=3.46 w=1.44 l=1.44
X4 VDD.t770 VDD.t769 Ring_Counter_0.D_FlipFlop_8.3-input-nand_0.Vout VDD.t77 sky130_fd_pr__pfet_g5v0d10v5 ad=0.4176 pd=3.46 as=0.4176 ps=3.46 w=1.44 l=0.72
X5 GND.t493 EN.t1 a_44977_59439# GND.t0 sky130_fd_pr__nfet_g5v0d10v5 ad=0.4176 pd=3.46 as=0.4176 ps=3.46 w=1.44 l=1.44
X6 CDAC_v3_0.OUT CDAC_v3_0.switch_6.Z.t131 sky130_fd_pr__cap_mim_m3_1 l=6.88 w=6.88
X7 VDD.t893 D_FlipFlop_2.3-input-nand_2.Vout.t4 D_FlipFlop_2.Nand_Gate_0.Vout VDD.t625 sky130_fd_pr__pfet_g5v0d10v5 ad=0.4176 pd=3.46 as=0.4176 ps=3.46 w=1.44 l=0.72
X8 GND.t403 Ring_Counter_0.D_FlipFlop_1.3-input-nand_2.Vout.t4 a_48541_56723# GND.t50 sky130_fd_pr__nfet_g5v0d10v5 ad=0.4176 pd=3.46 as=0.4176 ps=3.46 w=1.44 l=1.44
X9 D_FlipFlop_6.Nand_Gate_0.Vout D_FlipFlop_6.Inverter_1.Vout VDD.t783 VDD.t781 sky130_fd_pr__pfet_g5v0d10v5 ad=0.4176 pd=3.46 as=0.4176 ps=3.46 w=1.44 l=0.72
X10 a_2209_59439# Ring_Counter_0.D_FlipFlop_14.3-input-nand_0.Vout a_2209_58825# GND.t16 sky130_fd_pr__nfet_g5v0d10v5 ad=0.4176 pd=3.46 as=0.4176 ps=3.46 w=1.44 l=1.44
X11 CDAC_v3_0.OUT CDAC_v3_0.switch_7.Z.t64 sky130_fd_pr__cap_mim_m3_1 l=6.88 w=6.88
X12 CDAC_v3_0.OUT CDAC_v3_0.switch_7.Z.t63 sky130_fd_pr__cap_mim_m3_1 l=6.88 w=6.88
X13 D_FlipFlop_4.3-input-nand_0.Vout D_FlipFlop_4.CLK.t2 VDD.t360 VDD.t359 sky130_fd_pr__pfet_g5v0d10v5 ad=0.4176 pd=3.46 as=0.4176 ps=3.46 w=1.44 l=0.72
X14 a_23593_60797# CLK.t0 Ring_Counter_0.D_FlipFlop_8.3-input-nand_0.Vout GND.t25 sky130_fd_pr__nfet_g5v0d10v5 ad=0.4176 pd=3.46 as=0.4176 ps=3.46 w=1.44 l=1.44
X15 GND.t247 GND.t248 sky130_fd_pr__cap_mim_m3_1 l=6.88 w=6.88
X16 Ring_Counter_0.D_FlipFlop_0.3-input-nand_1.Vout Ring_Counter_0.D_FlipFlop_0.3-input-nand_1.B VDD.t43 VDD.t42 sky130_fd_pr__pfet_g5v0d10v5 ad=0.4176 pd=3.46 as=0.4176 ps=3.46 w=1.44 l=0.72
X17 VDD.t377 Ring_Counter_0.D_FlipFlop_5.3-input-nand_2.Vout.t4 Ring_Counter_0.D_FlipFlop_5.3-input-nand_2.C.t0 VDD.t115 sky130_fd_pr__pfet_g5v0d10v5 ad=0.4176 pd=3.46 as=0.4176 ps=3.46 w=1.44 l=0.72
X18 D_FlipFlop_0.3-input-nand_1.Vout D_FlipFlop_0.CLK.t2 VDD.t642 VDD.t641 sky130_fd_pr__pfet_g5v0d10v5 ad=0.4176 pd=3.46 as=0.4176 ps=3.46 w=1.44 l=0.72
X19 Ring_Counter_0.D_FlipFlop_14.3-input-nand_1.Vout.t1 Ring_Counter_0.D_FlipFlop_14.3-input-nand_1.B VDD.t668 VDD.t267 sky130_fd_pr__pfet_g5v0d10v5 ad=0.4176 pd=3.46 as=0.4176 ps=3.46 w=1.44 l=0.72
X20 GND.t619 CLK.t1 Ring_Counter_0.D_FlipFlop_14.Inverter_1.Vout.t0 GND.t12 sky130_fd_pr__nfet_g5v0d10v5 ad=0.4176 pd=3.46 as=0.4176 ps=3.46 w=1.44 l=1.44
X21 a_3059_61411# Ring_Counter_0.D_FlipFlop_13.3-input-nand_1.B a_3059_60797# GND.t15 sky130_fd_pr__nfet_g5v0d10v5 ad=0.4176 pd=3.46 as=0.4176 ps=3.46 w=1.44 l=1.44
X22 a_49930_48405# D_FlipFlop_7.nCLR.t4 GND.t292 GND.t291 sky130_fd_pr__nfet_g5v0d10v5 ad=0.4176 pd=3.46 as=0.4176 ps=3.46 w=1.44 l=1.44
X23 a_6623_56723# Ring_Counter_0.D_FlipFlop_12.Inverter_1.Vout.t2 Ring_Counter_0.D_FlipFlop_12.Nand_Gate_1.Vout.t1 GND.t18 sky130_fd_pr__nfet_g5v0d10v5 ad=0.4176 pd=3.46 as=0.4176 ps=3.46 w=1.44 l=1.44
X24 a_n4069_55365# Ring_Counter_0.D_FlipFlop_15.Nand_Gate_1.Vout.t3 a_n4069_54751# GND.t5 sky130_fd_pr__nfet_g5v0d10v5 ad=0.4176 pd=3.46 as=0.4176 ps=3.46 w=1.44 l=1.44
X25 GND.t521 VDD.t924 a_37849_61411# GND.t60 sky130_fd_pr__nfet_g5v0d10v5 ad=0.4176 pd=3.46 as=0.4176 ps=3.46 w=1.44 l=1.44
X26 CDAC_v3_0.OUT CDAC_v3_0.switch_5.Z.t35 sky130_fd_pr__cap_mim_m3_1 l=6.88 w=6.88
X27 Ring_Counter_0.D_FlipFlop_16.3-input-nand_2.Vout.t0 Ring_Counter_0.D_FlipFlop_16.3-input-nand_0.Vout VDD.t463 VDD.t341 sky130_fd_pr__pfet_g5v0d10v5 ad=0.4176 pd=3.46 as=0.4176 ps=3.46 w=1.44 l=0.72
X28 D_FlipFlop_2.3-input-nand_1.Vout D_FlipFlop_2.CLK.t2 a_33020_48405# GND.t638 sky130_fd_pr__nfet_g5v0d10v5 ad=0.4176 pd=3.46 as=0.4176 ps=3.46 w=1.44 l=1.44
X29 CDAC_v3_0.OUT CDAC_v3_0.switch_6.Z.t130 sky130_fd_pr__cap_mim_m3_1 l=6.88 w=6.88
X30 VDD.t768 VDD.t767 Ring_Counter_0.D_FlipFlop_1.3-input-nand_0.Vout VDD.t70 sky130_fd_pr__pfet_g5v0d10v5 ad=0.4176 pd=3.46 as=0.4176 ps=3.46 w=1.44 l=0.72
X31 VDD.t397 Ring_Counter_0.D_FlipFlop_1.3-input-nand_2.Vout.t5 Ring_Counter_0.D_FlipFlop_1.3-input-nand_2.C.t1 VDD.t2 sky130_fd_pr__pfet_g5v0d10v5 ad=0.4176 pd=3.46 as=0.4176 ps=3.46 w=1.44 l=0.72
X32 CDAC_v3_0.OUT CDAC_v3_0.switch_6.Z.t129 sky130_fd_pr__cap_mim_m3_1 l=6.88 w=6.88
X33 CDAC_v3_0.OUT CDAC_v3_0.switch_5.Z.t34 sky130_fd_pr__cap_mim_m3_1 l=6.88 w=6.88
X34 a_51632_31172.t1 a_51632_31172.t0 VDD.t318 VDD.t317 sky130_fd_pr__pfet_g5v0d10v5 ad=14.5 pd=100.58 as=14.5 ps=100.58 w=50 l=1
X35 GND.t245 GND.t246 sky130_fd_pr__cap_mim_m3_1 l=6.88 w=6.88
X36 VDD.t65 Ring_Counter_0.D_FlipFlop_9.Qbar Nand_Gate_6.A.t1 VDD.t60 sky130_fd_pr__pfet_g5v0d10v5 ad=0.4176 pd=3.46 as=0.4176 ps=3.46 w=1.44 l=0.72
X37 CDAC_v3_0.OUT CDAC_v3_0.switch_6.Z.t128 sky130_fd_pr__cap_mim_m3_1 l=6.88 w=6.88
X38 VDD.t368 D_FlipFlop_2.3-input-nand_1.B D_FlipFlop_2.3-input-nand_1.Vout VDD.t367 sky130_fd_pr__pfet_g5v0d10v5 ad=0.4176 pd=3.46 as=0.4176 ps=3.46 w=1.44 l=0.72
X39 CDAC_v3_0.OUT CDAC_v3_0.switch_6.Z.t127 sky130_fd_pr__cap_mim_m3_1 l=6.88 w=6.88
X40 GND.t243 GND.t244 sky130_fd_pr__cap_mim_m3_1 l=6.88 w=6.88
X41 GND.t41 Nand_Gate_6.A.t4 Ring_Counter_0.D_FlipFlop_10.3-input-nand_1.B GND.t40 sky130_fd_pr__nfet_g5v0d10v5 ad=0.4176 pd=3.46 as=0.4176 ps=3.46 w=1.44 l=1.44
X42 D_FlipFlop_6.3-input-nand_1.Vout D_FlipFlop_6.CLK.t2 VDD.t825 VDD.t236 sky130_fd_pr__pfet_g5v0d10v5 ad=0.4176 pd=3.46 as=0.4176 ps=3.46 w=1.44 l=0.72
X43 D_FlipFlop_3.3-input-nand_1.B D_FlipFlop_7.D.t3 VDD.t617 VDD.t616 sky130_fd_pr__pfet_g5v0d10v5 ad=0.4176 pd=3.46 as=0.4176 ps=3.46 w=1.44 l=0.72
X44 GND.t522 VDD.t925 a_31571_59439# GND.t94 sky130_fd_pr__nfet_g5v0d10v5 ad=0.4176 pd=3.46 as=0.4176 ps=3.46 w=1.44 l=1.44
X45 GND.t523 VDD.t926 a_28007_59439# GND.t107 sky130_fd_pr__nfet_g5v0d10v5 ad=0.4176 pd=3.46 as=0.4176 ps=3.46 w=1.44 l=1.44
X46 CDAC_v3_0.OUT CDAC_v3_0.switch_7.Z.t62 sky130_fd_pr__cap_mim_m3_1 l=6.88 w=6.88
X47 D_FlipFlop_7.Nand_Gate_1.Vout D_FlipFlop_7.Inverter_1.Vout VDD.t879 VDD.t877 sky130_fd_pr__pfet_g5v0d10v5 ad=0.4176 pd=3.46 as=0.4176 ps=3.46 w=1.44 l=0.72
X48 a_35135_56723# Ring_Counter_0.D_FlipFlop_4.Inverter_1.Vout.t2 Ring_Counter_0.D_FlipFlop_4.Nand_Gate_1.Vout.t1 GND.t263 sky130_fd_pr__nfet_g5v0d10v5 ad=0.4176 pd=3.46 as=0.4176 ps=3.46 w=1.44 l=1.44
X49 VDD.t580 D_FlipFlop_3.nPRE.t4 Ring_Counter_0.D_FlipFlop_7.3-input-nand_1.B VDD.t231 sky130_fd_pr__pfet_g5v0d10v5 ad=0.4176 pd=3.46 as=0.4176 ps=3.46 w=1.44 l=0.72
X50 VDD.t766 VDD.t765 Ring_Counter_0.D_FlipFlop_2.Qbar VDD.t0 sky130_fd_pr__pfet_g5v0d10v5 ad=0.4176 pd=3.46 as=0.4176 ps=3.46 w=1.44 l=0.72
X51 GND.t333 Ring_Counter_0.D_FlipFlop_12.3-input-nand_2.Vout.t4 a_9337_56723# GND.t62 sky130_fd_pr__nfet_g5v0d10v5 ad=0.4176 pd=3.46 as=0.4176 ps=3.46 w=1.44 l=1.44
X52 a_5773_58825# Ring_Counter_0.D_FlipFlop_13.3-input-nand_2.C.t4 Ring_Counter_0.D_FlipFlop_13.3-input-nand_2.Vout.t1 GND.t29 sky130_fd_pr__nfet_g5v0d10v5 ad=0.4176 pd=3.46 as=0.4176 ps=3.46 w=1.44 l=1.44
X53 GND.t321 EN.t2 a_10187_61411# GND.t58 sky130_fd_pr__nfet_g5v0d10v5 ad=0.4176 pd=3.46 as=0.4176 ps=3.46 w=1.44 l=1.44
X54 CDAC_v3_0.OUT CDAC_v3_0.switch_7.Z.t61 sky130_fd_pr__cap_mim_m3_1 l=6.88 w=6.88
X55 D_FlipFlop_5.CLK.t0 And_Gate_3.Nand_Gate_0.Vout GND.t453 GND.t452 sky130_fd_pr__nfet_g5v0d10v5 ad=0.4176 pd=3.46 as=0.4176 ps=3.46 w=1.44 l=1.44
X56 VDD.t576 EN.t3 D_FlipFlop_2.nPRE.t3 VDD.t133 sky130_fd_pr__pfet_g5v0d10v5 ad=0.4176 pd=3.46 as=0.4176 ps=3.46 w=1.44 l=0.72
X57 GND.t241 GND.t242 sky130_fd_pr__cap_mim_m3_1 l=6.88 w=6.88
X58 a_15496_48405# D_FlipFlop_5.3-input-nand_1.B a_14882_48405# GND.t417 sky130_fd_pr__nfet_g5v0d10v5 ad=0.4176 pd=3.46 as=0.4176 ps=3.46 w=1.44 l=1.44
X59 CDAC_v3_0.OUT CDAC_v3_0.switch_5.Z.t33 sky130_fd_pr__cap_mim_m3_1 l=6.88 w=6.88
X60 CDAC_v3_0.OUT CDAC_v3_0.switch_3.Z.t9 sky130_fd_pr__cap_mim_m3_1 l=6.88 w=6.88
X61 a_30721_56723# Ring_Counter_0.D_FlipFlop_6.Inverter_1.Vout.t2 Ring_Counter_0.D_FlipFlop_6.Nand_Gate_0.Vout GND.t259 sky130_fd_pr__nfet_g5v0d10v5 ad=0.4176 pd=3.46 as=0.4176 ps=3.46 w=1.44 l=1.44
X62 VDD.t474 D_FlipFlop_4.nPRE.t4 Ring_Counter_0.D_FlipFlop_10.Qbar.t2 VDD.t24 sky130_fd_pr__pfet_g5v0d10v5 ad=0.4176 pd=3.46 as=0.4176 ps=3.46 w=1.44 l=0.72
X63 CDAC_v3_0.OUT CDAC_v3_0.switch_6.Z.t126 sky130_fd_pr__cap_mim_m3_1 l=6.88 w=6.88
X64 VDD.t811 CLK.t2 Ring_Counter_0.D_FlipFlop_0.3-input-nand_0.Vout.t2 VDD.t107 sky130_fd_pr__pfet_g5v0d10v5 ad=0.4176 pd=3.46 as=0.4176 ps=3.46 w=1.44 l=0.72
X65 VDD.t626 D_FlipFlop_2.3-input-nand_2.C.t4 D_FlipFlop_2.Nand_Gate_1.Vout VDD.t625 sky130_fd_pr__pfet_g5v0d10v5 ad=0.4176 pd=3.46 as=0.4176 ps=3.46 w=1.44 l=0.72
X66 a_n11404_48405# D_FlipFlop_7.nPRE.t4 GND.t457 GND.t456 sky130_fd_pr__nfet_g5v0d10v5 ad=0.4176 pd=3.46 as=0.4176 ps=3.46 w=1.44 l=1.44
X67 D_FlipFlop_6.Nand_Gate_1.Vout D_FlipFlop_6.Inverter_1.Vout VDD.t782 VDD.t781 sky130_fd_pr__pfet_g5v0d10v5 ad=0.4176 pd=3.46 as=0.4176 ps=3.46 w=1.44 l=0.72
X68 VDD.t423 Ring_Counter_0.D_FlipFlop_3.Inverter_1.Vout.t2 Ring_Counter_0.D_FlipFlop_3.Nand_Gate_0.Vout VDD.t47 sky130_fd_pr__pfet_g5v0d10v5 ad=0.4176 pd=3.46 as=0.4176 ps=3.46 w=1.44 l=0.72
X69 CDAC_v3_0.OUT CDAC_v3_0.switch_7.Z.t60 sky130_fd_pr__cap_mim_m3_1 l=6.88 w=6.88
X70 VDD.t764 VDD.t763 Ring_Counter_0.D_FlipFlop_11.3-input-nand_0.Vout VDD.t38 sky130_fd_pr__pfet_g5v0d10v5 ad=0.4176 pd=3.46 as=0.4176 ps=3.46 w=1.44 l=0.72
X71 GND.t444 EN.t4 a_24443_61411# GND.t299 sky130_fd_pr__nfet_g5v0d10v5 ad=0.4176 pd=3.46 as=0.4176 ps=3.46 w=1.44 l=1.44
X72 D_FlipFlop_4.3-input-nand_1.Vout D_FlipFlop_4.CLK.t3 VDD.t361 VDD.t359 sky130_fd_pr__pfet_g5v0d10v5 ad=0.4176 pd=3.46 as=0.4176 ps=3.46 w=1.44 l=0.72
X73 Ring_Counter_0.D_FlipFlop_8.3-input-nand_0.Vout Nand_Gate_3.A.t4 VDD.t438 VDD.t77 sky130_fd_pr__pfet_g5v0d10v5 ad=0.4176 pd=3.46 as=0.4176 ps=3.46 w=1.44 l=0.72
X74 a_20879_61411# Ring_Counter_0.D_FlipFlop_8.3-input-nand_1.B a_20879_60797# GND.t301 sky130_fd_pr__nfet_g5v0d10v5 ad=0.4176 pd=3.46 as=0.4176 ps=3.46 w=1.44 l=1.44
X75 a_41413_61411# D_FlipFlop_1.nPRE.t4 a_41413_60797# GND.t284 sky130_fd_pr__nfet_g5v0d10v5 ad=0.4176 pd=3.46 as=0.4176 ps=3.46 w=1.44 l=1.44
X76 a_34285_58825# Ring_Counter_0.D_FlipFlop_5.3-input-nand_2.C.t4 Ring_Counter_0.D_FlipFlop_5.3-input-nand_2.Vout.t1 GND.t7 sky130_fd_pr__nfet_g5v0d10v5 ad=0.4176 pd=3.46 as=0.4176 ps=3.46 w=1.44 l=1.44
X77 VDD.t124 And_Gate_1.A And_Gate_1.Nand_Gate_0.Vout VDD.t123 sky130_fd_pr__pfet_g5v0d10v5 ad=0.4176 pd=3.46 as=0.4176 ps=3.46 w=1.44 l=0.72
X78 VDD.t581 D_FlipFlop_3.nPRE.t5 Ring_Counter_0.D_FlipFlop_6.Qbar VDD.t168 sky130_fd_pr__pfet_g5v0d10v5 ad=0.4176 pd=3.46 as=0.4176 ps=3.46 w=1.44 l=0.72
X79 VDD.t315 Ring_Counter_0.D_FlipFlop_12.3-input-nand_2.Vout.t5 Ring_Counter_0.D_FlipFlop_12.3-input-nand_2.C.t1 VDD.t90 sky130_fd_pr__pfet_g5v0d10v5 ad=0.4176 pd=3.46 as=0.4176 ps=3.46 w=1.44 l=0.72
X80 D_FlipFlop_7.Inverter_1.Vout D_FlipFlop_7.CLK.t2 GND.t508 GND.t507 sky130_fd_pr__nfet_g5v0d10v5 ad=0.4176 pd=3.46 as=0.4176 ps=3.46 w=1.44 l=1.44
X81 Ring_Counter_0.D_FlipFlop_15.3-input-nand_2.C.t0 Ring_Counter_0.D_FlipFlop_15.3-input-nand_1.Vout.t4 VDD.t898 VDD.t6 sky130_fd_pr__pfet_g5v0d10v5 ad=0.4176 pd=3.46 as=0.4176 ps=3.46 w=1.44 l=0.72
X82 CDAC_v3_0.OUT CDAC_v3_0.switch_6.Z.t125 sky130_fd_pr__cap_mim_m3_1 l=6.88 w=6.88
X83 VDD.t775 Ring_Counter_0.D_FlipFlop_2.3-input-nand_2.C.t4 Ring_Counter_0.D_FlipFlop_2.3-input-nand_2.Vout.t2 VDD.t28 sky130_fd_pr__pfet_g5v0d10v5 ad=0.4176 pd=3.46 as=0.4176 ps=3.46 w=1.44 l=0.72
X84 CDAC_v3_0.OUT CDAC_v3_0.switch_7.Z.t59 sky130_fd_pr__cap_mim_m3_1 l=6.88 w=6.88
X85 Ring_Counter_0.D_FlipFlop_10.Nand_Gate_0.Vout Ring_Counter_0.D_FlipFlop_10.3-input-nand_2.Vout.t4 VDD.t211 VDD.t56 sky130_fd_pr__pfet_g5v0d10v5 ad=0.4176 pd=3.46 as=0.4176 ps=3.46 w=1.44 l=0.72
X86 VDD.t886 D_FlipFlop_0.3-input-nand_0.Vout D_FlipFlop_0.3-input-nand_2.Vout.t3 VDD.t771 sky130_fd_pr__pfet_g5v0d10v5 ad=0.4176 pd=3.46 as=0.4176 ps=3.46 w=1.44 l=0.72
X87 GND.t524 VDD.t927 a_13751_55365# GND.t19 sky130_fd_pr__nfet_g5v0d10v5 ad=0.4176 pd=3.46 as=0.4176 ps=3.46 w=1.44 l=1.44
X88 a_43754_51119# D_FlipFlop_1.3-input-nand_0.Vout a_43140_51119# GND.t430 sky130_fd_pr__nfet_g5v0d10v5 ad=0.4176 pd=3.46 as=0.4176 ps=3.46 w=1.44 l=1.44
X89 a_n4919_60797# CLK.t3 Ring_Counter_0.D_FlipFlop_16.3-input-nand_0.Vout GND.t96 sky130_fd_pr__nfet_g5v0d10v5 ad=0.4176 pd=3.46 as=0.4176 ps=3.46 w=1.44 l=1.44
X90 a_40815_52049# And_Gate_6.A GND.t415 GND.t414 sky130_fd_pr__nfet_g5v0d10v5 ad=0.4176 pd=3.46 as=0.4176 ps=3.46 w=1.44 l=1.44
X91 a_n7633_59439# Ring_Counter_0.D_FlipFlop_16.3-input-nand_1.Vout.t4 a_n7633_58825# GND.t23 sky130_fd_pr__nfet_g5v0d10v5 ad=0.4176 pd=3.46 as=0.4176 ps=3.46 w=1.44 l=1.44
X92 Q6.t1 D_FlipFlop_1.Qbar a_47828_51119# GND.t410 sky130_fd_pr__nfet_g5v0d10v5 ad=0.4176 pd=3.46 as=0.4176 ps=3.46 w=1.44 l=1.44
X93 a_48541_58825# Ring_Counter_0.D_FlipFlop_1.3-input-nand_2.C.t4 Ring_Counter_0.D_FlipFlop_1.3-input-nand_2.Vout.t0 GND.t50 sky130_fd_pr__nfet_g5v0d10v5 ad=0.4176 pd=3.46 as=0.4176 ps=3.46 w=1.44 l=1.44
X94 Ring_Counter_0.D_FlipFlop_3.Qbar.t2 Ring_Counter_0.D_FlipFlop_3.Nand_Gate_1.Vout.t3 VDD.t175 VDD.t117 sky130_fd_pr__pfet_g5v0d10v5 ad=0.4176 pd=3.46 as=0.4176 ps=3.46 w=1.44 l=0.72
X95 CDAC_v3_0.OUT CDAC_v3_0.switch_7.Z.t58 sky130_fd_pr__cap_mim_m3_1 l=6.88 w=6.88
X96 And_Gate_1.Nand_Gate_0.Vout CLK.t4 VDD.t813 VDD.t812 sky130_fd_pr__pfet_g5v0d10v5 ad=0.4176 pd=3.46 as=0.4176 ps=3.46 w=1.44 l=0.72
X97 a_27157_60797# CLK.t5 Ring_Counter_0.D_FlipFlop_7.3-input-nand_0.Vout GND.t31 sky130_fd_pr__nfet_g5v0d10v5 ad=0.4176 pd=3.46 as=0.4176 ps=3.46 w=1.44 l=1.44
X98 a_27542_45397# Q5.t4 GND.t250 GND.t249 sky130_fd_pr__nfet_g5v0d10v5 ad=0.4176 pd=3.46 as=0.4176 ps=3.46 w=1.44 l=1.44
X99 CDAC_v3_0.switch_5.Z.t3 a_27542_45397# VDD.t447 VDD.t446 sky130_fd_pr__pfet_g5v0d10v5 ad=0.4176 pd=3.46 as=0.4176 ps=3.46 w=1.44 l=0.72
X100 VDD.t139 Ring_Counter_0.D_FlipFlop_4.3-input-nand_2.Vout.t4 Ring_Counter_0.D_FlipFlop_4.3-input-nand_2.C.t3 VDD.t92 sky130_fd_pr__pfet_g5v0d10v5 ad=0.4176 pd=3.46 as=0.4176 ps=3.46 w=1.44 l=0.72
X101 Ring_Counter_0.D_FlipFlop_1.3-input-nand_0.Vout D_FlipFlop_7.nCLR.t5 VDD.t243 VDD.t70 sky130_fd_pr__pfet_g5v0d10v5 ad=0.4176 pd=3.46 as=0.4176 ps=3.46 w=1.44 l=0.72
X102 D_FlipFlop_3.Inverter_1.Vout D_FlipFlop_3.CLK.t2 VDD.t394 VDD.t393 sky130_fd_pr__pfet_g5v0d10v5 ad=0.4176 pd=3.46 as=0.4176 ps=3.46 w=1.44 l=0.72
X103 D_FlipFlop_0.3-input-nand_2.Vout.t0 D_FlipFlop_7.nCLR.t6 VDD.t245 VDD.t244 sky130_fd_pr__pfet_g5v0d10v5 ad=0.4176 pd=3.46 as=0.4176 ps=3.46 w=1.44 l=0.72
X104 GND.t525 VDD.t928 a_6623_59439# GND.t18 sky130_fd_pr__nfet_g5v0d10v5 ad=0.4176 pd=3.46 as=0.4176 ps=3.46 w=1.44 l=1.44
X105 a_49391_60797# CLK.t6 Ring_Counter_0.D_FlipFlop_0.3-input-nand_1.Vout GND.t28 sky130_fd_pr__nfet_g5v0d10v5 ad=0.4176 pd=3.46 as=0.4176 ps=3.46 w=1.44 l=1.44
X106 VDD.t239 Ring_Counter_0.D_FlipFlop_6.3-input-nand_2.C.t4 Ring_Counter_0.D_FlipFlop_6.3-input-nand_2.Vout.t2 VDD.t188 sky130_fd_pr__pfet_g5v0d10v5 ad=0.4176 pd=3.46 as=0.4176 ps=3.46 w=1.44 l=0.72
X107 CDAC_v3_0.OUT CDAC_v3_0.switch_6.Z.t124 sky130_fd_pr__cap_mim_m3_1 l=6.88 w=6.88
X108 VDD.t920 D_FlipFlop_0.Nand_Gate_0.Vout Q7.t3 VDD.t347 sky130_fd_pr__pfet_g5v0d10v5 ad=0.4176 pd=3.46 as=0.4176 ps=3.46 w=1.44 l=0.72
X109 VDD.t246 Ring_Counter_0.D_FlipFlop_14.Inverter_1.Vout.t2 Ring_Counter_0.D_FlipFlop_14.Nand_Gate_0.Vout VDD.t18 sky130_fd_pr__pfet_g5v0d10v5 ad=0.4176 pd=3.46 as=0.4176 ps=3.46 w=1.44 l=0.72
X110 CDAC_v3_0.OUT CDAC_v3_0.switch_6.Z.t123 sky130_fd_pr__cap_mim_m3_1 l=6.88 w=6.88
X111 VDD.t329 D_FlipFlop_6.nPRE.t4 Ring_Counter_0.D_FlipFlop_13.3-input-nand_1.B VDD.t186 sky130_fd_pr__pfet_g5v0d10v5 ad=0.4176 pd=3.46 as=0.4176 ps=3.46 w=1.44 l=0.72
X112 GND.t239 GND.t240 sky130_fd_pr__cap_mim_m3_1 l=6.88 w=6.88
X113 a_41168_51119# D_FlipFlop_7.nCLR.t7 GND.t276 GND.t275 sky130_fd_pr__nfet_g5v0d10v5 ad=0.4176 pd=3.46 as=0.4176 ps=3.46 w=1.44 l=1.44
X114 a_25616_51119# D_FlipFlop_3.nPRE.t6 GND.t563 GND.t562 sky130_fd_pr__nfet_g5v0d10v5 ad=0.4176 pd=3.46 as=0.4176 ps=3.46 w=1.44 l=1.44
X115 CDAC_v3_0.OUT CDAC_v3_0.switch_6.Z.t122 sky130_fd_pr__cap_mim_m3_1 l=6.88 w=6.88
X116 D_FlipFlop_0.3-input-nand_2.Vout.t1 D_FlipFlop_0.3-input-nand_2.C.t4 VDD.t864 VDD.t428 sky130_fd_pr__pfet_g5v0d10v5 ad=0.4176 pd=3.46 as=0.4176 ps=3.46 w=1.44 l=0.72
X117 CDAC_v3_0.OUT CDAC_v3_0.switch_6.Z.t121 sky130_fd_pr__cap_mim_m3_1 l=6.88 w=6.88
X118 GND.t526 VDD.t929 a_44977_61411# GND.t0 sky130_fd_pr__nfet_g5v0d10v5 ad=0.4176 pd=3.46 as=0.4176 ps=3.46 w=1.44 l=1.44
X119 a_49577_52049# And_Gate_7.A GND.t716 GND.t715 sky130_fd_pr__nfet_g5v0d10v5 ad=0.4176 pd=3.46 as=0.4176 ps=3.46 w=1.44 l=1.44
X120 a_2209_61411# Nand_Gate_0.A.t4 a_2209_60797# GND.t16 sky130_fd_pr__nfet_g5v0d10v5 ad=0.4176 pd=3.46 as=0.4176 ps=3.46 w=1.44 l=1.44
X121 a_16465_54751# Ring_Counter_0.D_FlipFlop_10.Qbar.t4 D_FlipFlop_4.nPRE.t0 GND.t40 sky130_fd_pr__nfet_g5v0d10v5 ad=0.4176 pd=3.46 as=0.4176 ps=3.46 w=1.44 l=1.44
X122 GND.t527 VDD.t930 a_38699_55365# GND.t71 sky130_fd_pr__nfet_g5v0d10v5 ad=0.4176 pd=3.46 as=0.4176 ps=3.46 w=1.44 l=1.44
X123 CDAC_v3_0.OUT CDAC_v3_0.switch_7.Z.t57 sky130_fd_pr__cap_mim_m3_1 l=6.88 w=6.88
X124 a_8092_51119# D_FlipFlop_4.nPRE.t5 GND.t271 GND.t270 sky130_fd_pr__nfet_g5v0d10v5 ad=0.4176 pd=3.46 as=0.4176 ps=3.46 w=1.44 l=1.44
X125 VDD.t814 CLK.t7 Ring_Counter_0.D_FlipFlop_16.3-input-nand_0.Vout VDD.t341 sky130_fd_pr__pfet_g5v0d10v5 ad=0.4176 pd=3.46 as=0.4176 ps=3.46 w=1.44 l=0.72
X126 a_51773_21431.t0 Vin.t0 a_50502_29172.t1 Vbias.t4 sky130_fd_pr__nfet_g5v0d10v5 ad=4.35 pd=30.58 as=4.35 ps=30.58 w=15 l=1
X127 VDD.t495 Ring_Counter_0.D_FlipFlop_7.Qbar Nand_Gate_3.A.t2 VDD.t231 sky130_fd_pr__pfet_g5v0d10v5 ad=0.4176 pd=3.46 as=0.4176 ps=3.46 w=1.44 l=0.72
X128 a_20029_56723# Ring_Counter_0.D_FlipFlop_9.Inverter_1.Vout.t2 Ring_Counter_0.D_FlipFlop_9.Nand_Gate_0.Vout GND.t45 sky130_fd_pr__nfet_g5v0d10v5 ad=0.4176 pd=3.46 as=0.4176 ps=3.46 w=1.44 l=1.44
X129 GND.t420 Nand_Gate_3.A.t5 Ring_Counter_0.D_FlipFlop_8.3-input-nand_1.B GND.t25 sky130_fd_pr__nfet_g5v0d10v5 ad=0.4176 pd=3.46 as=0.4176 ps=3.46 w=1.44 l=1.44
X130 GND.t237 GND.t238 sky130_fd_pr__cap_mim_m3_1 l=6.88 w=6.88
X131 Q5.t0 D_FlipFlop_2.nPRE.t4 VDD.t850 VDD.t219 sky130_fd_pr__pfet_g5v0d10v5 ad=0.4176 pd=3.46 as=0.4176 ps=3.46 w=1.44 l=0.72
X132 GND.t528 VDD.t931 a_35135_59439# GND.t263 sky130_fd_pr__nfet_g5v0d10v5 ad=0.4176 pd=3.46 as=0.4176 ps=3.46 w=1.44 l=1.44
X133 Q7.t1 D_FlipFlop_0.Qbar VDD.t406 VDD.t405 sky130_fd_pr__pfet_g5v0d10v5 ad=0.4176 pd=3.46 as=0.4176 ps=3.46 w=1.44 l=0.72
X134 a_42263_56723# Ring_Counter_0.D_FlipFlop_2.Inverter_1.Vout.t2 Ring_Counter_0.D_FlipFlop_2.Nand_Gate_1.Vout.t0 GND.t22 sky130_fd_pr__nfet_g5v0d10v5 ad=0.4176 pd=3.46 as=0.4176 ps=3.46 w=1.44 l=1.44
X135 VDD.t374 D_FlipFlop_2.nPRE.t5 Ring_Counter_0.D_FlipFlop_5.3-input-nand_1.B VDD.t10 sky130_fd_pr__pfet_g5v0d10v5 ad=0.4176 pd=3.46 as=0.4176 ps=3.46 w=1.44 l=0.72
X136 a_n56_51119# D_FlipFlop_6.3-input-nand_0.Vout a_n670_51119# GND.t8 sky130_fd_pr__nfet_g5v0d10v5 ad=0.4176 pd=3.46 as=0.4176 ps=3.46 w=1.44 l=1.44
X137 a_52105_59439# Ring_Counter_0.D_FlipFlop_0.3-input-nand_0.Vout.t4 a_52105_58825# GND.t69 sky130_fd_pr__nfet_g5v0d10v5 ad=0.4176 pd=3.46 as=0.4176 ps=3.46 w=1.44 l=1.44
X138 VDD.t575 EN.t5 Ring_Counter_0.D_FlipFlop_0.Qbar VDD.t42 sky130_fd_pr__pfet_g5v0d10v5 ad=0.4176 pd=3.46 as=0.4176 ps=3.46 w=1.44 l=0.72
X139 a_9337_58825# Ring_Counter_0.D_FlipFlop_12.3-input-nand_2.C.t4 Ring_Counter_0.D_FlipFlop_12.3-input-nand_2.Vout.t0 GND.t62 sky130_fd_pr__nfet_g5v0d10v5 ad=0.4176 pd=3.46 as=0.4176 ps=3.46 w=1.44 l=1.44
X140 Ring_Counter_0.D_FlipFlop_11.3-input-nand_0.Vout D_FlipFlop_4.nPRE.t6 VDD.t212 VDD.t38 sky130_fd_pr__pfet_g5v0d10v5 ad=0.4176 pd=3.46 as=0.4176 ps=3.46 w=1.44 l=0.72
X141 VDD.t762 VDD.t761 Ring_Counter_0.D_FlipFlop_14.Qbar.t2 VDD.t267 sky130_fd_pr__pfet_g5v0d10v5 ad=0.4176 pd=3.46 as=0.4176 ps=3.46 w=1.44 l=0.72
X142 GND.t52 Ring_Counter_0.D_FlipFlop_10.3-input-nand_2.C.t4 a_13751_56723# GND.t19 sky130_fd_pr__nfet_g5v0d10v5 ad=0.4176 pd=3.46 as=0.4176 ps=3.46 w=1.44 l=1.44
X143 GND.t353 EN.t6 a_30721_59439# GND.t259 sky130_fd_pr__nfet_g5v0d10v5 ad=0.4176 pd=3.46 as=0.4176 ps=3.46 w=1.44 l=1.44
X144 VDD.t815 CLK.t8 Ring_Counter_0.D_FlipFlop_10.Inverter_1.Vout.t1 VDD.t24 sky130_fd_pr__pfet_g5v0d10v5 ad=0.4176 pd=3.46 as=0.4176 ps=3.46 w=1.44 l=0.72
X145 VDD.t772 D_FlipFlop_0.3-input-nand_1.Vout D_FlipFlop_0.3-input-nand_2.C.t1 VDD.t771 sky130_fd_pr__pfet_g5v0d10v5 ad=0.4176 pd=3.46 as=0.4176 ps=3.46 w=1.44 l=0.72
X146 Ring_Counter_0.D_FlipFlop_16.Qbar Ring_Counter_0.D_FlipFlop_16.Nand_Gate_1.Vout.t3 VDD.t37 VDD.t31 sky130_fd_pr__pfet_g5v0d10v5 ad=0.4176 pd=3.46 as=0.4176 ps=3.46 w=1.44 l=0.72
X147 CDAC_v3_0.OUT CDAC_v3_0.switch_6.Z.t120 sky130_fd_pr__cap_mim_m3_1 l=6.88 w=6.88
X148 D_FlipFlop_1.3-input-nand_0.Vout D_FlipFlop_1.CLK.t2 VDD.t831 VDD.t830 sky130_fd_pr__pfet_g5v0d10v5 ad=0.4176 pd=3.46 as=0.4176 ps=3.46 w=1.44 l=0.72
X149 VDD.t399 D_FlipFlop_5.nPRE.t4 Ring_Counter_0.D_FlipFlop_8.Qbar.t2 VDD.t95 sky130_fd_pr__pfet_g5v0d10v5 ad=0.4176 pd=3.46 as=0.4176 ps=3.46 w=1.44 l=0.72
X150 VDD.t55 Nand_Gate_6.A.t5 Ring_Counter_0.D_FlipFlop_9.Qbar VDD.t54 sky130_fd_pr__pfet_g5v0d10v5 ad=0.4176 pd=3.46 as=0.4176 ps=3.46 w=1.44 l=0.72
X151 VDD.t574 EN.t7 Ring_Counter_0.D_FlipFlop_3.3-input-nand_2.Vout.t3 VDD.t47 sky130_fd_pr__pfet_g5v0d10v5 ad=0.4176 pd=3.46 as=0.4176 ps=3.46 w=1.44 l=0.72
X152 D_FlipFlop_4.Nand_Gate_0.Vout D_FlipFlop_4.Inverter_1.Vout a_10808_51119# GND.t409 sky130_fd_pr__nfet_g5v0d10v5 ad=0.4176 pd=3.46 as=0.4176 ps=3.46 w=1.44 l=1.44
X153 CDAC_v3_0.OUT CDAC_v3_0.switch_7.Z.t56 sky130_fd_pr__cap_mim_m3_1 l=6.88 w=6.88
X154 Q1.t2 D_FlipFlop_6.nPRE.t5 VDD.t330 VDD.t221 sky130_fd_pr__pfet_g5v0d10v5 ad=0.4176 pd=3.46 as=0.4176 ps=3.46 w=1.44 l=0.72
X155 a_45827_59439# Ring_Counter_0.D_FlipFlop_1.3-input-nand_1.Vout.t4 a_45827_58825# GND.t2 sky130_fd_pr__nfet_g5v0d10v5 ad=0.4176 pd=3.46 as=0.4176 ps=3.46 w=1.44 l=1.44
X156 GND.t661 EN.t8 a_31571_61411# GND.t94 sky130_fd_pr__nfet_g5v0d10v5 ad=0.4176 pd=3.46 as=0.4176 ps=3.46 w=1.44 l=1.44
X157 GND.t354 EN.t9 a_28007_61411# GND.t107 sky130_fd_pr__nfet_g5v0d10v5 ad=0.4176 pd=3.46 as=0.4176 ps=3.46 w=1.44 l=1.44
X158 a_30304_48405# D_FlipFlop_3.Nand_Gate_1.Vout a_29690_48405# GND.t431 sky130_fd_pr__nfet_g5v0d10v5 ad=0.4176 pd=3.46 as=0.4176 ps=3.46 w=1.44 l=1.44
X159 CDAC_v3_0.OUT CDAC_v3_0.switch_6.Z.t119 sky130_fd_pr__cap_mim_m3_1 l=6.88 w=6.88
X160 Q1.t1 D_FlipFlop_6.Qbar VDD.t163 VDD.t162 sky130_fd_pr__pfet_g5v0d10v5 ad=0.4176 pd=3.46 as=0.4176 ps=3.46 w=1.44 l=0.72
X161 VDD.t816 CLK.t9 Ring_Counter_0.D_FlipFlop_6.Inverter_1.Vout.t1 VDD.t168 sky130_fd_pr__pfet_g5v0d10v5 ad=0.4176 pd=3.46 as=0.4176 ps=3.46 w=1.44 l=0.72
X162 a_5773_60797# CLK.t10 Ring_Counter_0.D_FlipFlop_13.3-input-nand_0.Vout GND.t29 sky130_fd_pr__nfet_g5v0d10v5 ad=0.4176 pd=3.46 as=0.4176 ps=3.46 w=1.44 l=1.44
X163 a_n670_51119# D_FlipFlop_6.nPRE.t6 GND.t397 GND.t396 sky130_fd_pr__nfet_g5v0d10v5 ad=0.4176 pd=3.46 as=0.4176 ps=3.46 w=1.44 l=1.44
X164 D_FlipFlop_4.3-input-nand_2.Vout.t3 D_FlipFlop_4.3-input-nand_2.C.t4 VDD.t313 VDD.t312 sky130_fd_pr__pfet_g5v0d10v5 ad=0.4176 pd=3.46 as=0.4176 ps=3.46 w=1.44 l=0.72
X165 CDAC_v3_0.OUT CDAC_v3_0.switch_5.Z.t32 sky130_fd_pr__cap_mim_m3_1 l=6.88 w=6.88
X166 D_FlipFlop_0.3-input-nand_2.C.t0 EN.t10 VDD.t573 VDD.t244 sky130_fd_pr__pfet_g5v0d10v5 ad=0.4176 pd=3.46 as=0.4176 ps=3.46 w=1.44 l=0.72
X167 VDD.t348 D_FlipFlop_0.Nand_Gate_1.Vout D_FlipFlop_0.Qbar VDD.t347 sky130_fd_pr__pfet_g5v0d10v5 ad=0.4176 pd=3.46 as=0.4176 ps=3.46 w=1.44 l=0.72
X168 a_19282_52049# D_FlipFlop_5.nPRE.t5 And_Gate_3.A GND.t405 sky130_fd_pr__nfet_g5v0d10v5 ad=0.4176 pd=3.46 as=0.4176 ps=3.46 w=1.44 l=1.44
X169 a_47214_48405# D_FlipFlop_7.nCLR.t8 GND.t278 GND.t277 sky130_fd_pr__nfet_g5v0d10v5 ad=0.4176 pd=3.46 as=0.4176 ps=3.46 w=1.44 l=1.44
X170 D_FlipFlop_0.3-input-nand_2.C.t3 D_FlipFlop_0.3-input-nand_2.Vout.t4 VDD.t429 VDD.t428 sky130_fd_pr__pfet_g5v0d10v5 ad=0.4176 pd=3.46 as=0.4176 ps=3.46 w=1.44 l=0.72
X171 VDD.t618 D_FlipFlop_7.D.t4 D_FlipFlop_3.3-input-nand_0.Vout VDD.t519 sky130_fd_pr__pfet_g5v0d10v5 ad=0.4176 pd=3.46 as=0.4176 ps=3.46 w=1.44 l=0.72
X172 CDAC_v3_0.OUT CDAC_v3_0.switch_6.Z.t118 sky130_fd_pr__cap_mim_m3_1 l=6.88 w=6.88
X173 VDD.t94 CLK.t11 Ring_Counter_0.D_FlipFlop_15.3-input-nand_1.Vout.t3 VDD.t6 sky130_fd_pr__pfet_g5v0d10v5 ad=0.4176 pd=3.46 as=0.4176 ps=3.46 w=1.44 l=0.72
X174 GND.t235 GND.t236 sky130_fd_pr__cap_mim_m3_1 l=6.88 w=6.88
X175 Ring_Counter_0.D_FlipFlop_9.Nand_Gate_0.Vout Ring_Counter_0.D_FlipFlop_9.3-input-nand_2.Vout.t4 VDD.t291 VDD.t60 sky130_fd_pr__pfet_g5v0d10v5 ad=0.4176 pd=3.46 as=0.4176 ps=3.46 w=1.44 l=0.72
X176 D_FlipFlop_6.3-input-nand_1.B D_FlipFlop_7.D.t5 GND.t568 GND.t567 sky130_fd_pr__nfet_g5v0d10v5 ad=0.4176 pd=3.46 as=0.4176 ps=3.46 w=1.44 l=1.44
X177 GND.t529 VDD.t932 a_17315_55365# GND.t44 sky130_fd_pr__nfet_g5v0d10v5 ad=0.4176 pd=3.46 as=0.4176 ps=3.46 w=1.44 l=1.44
X178 GND.t328 Ring_Counter_0.D_FlipFlop_3.3-input-nand_2.C.t4 a_38699_56723# GND.t71 sky130_fd_pr__nfet_g5v0d10v5 ad=0.4176 pd=3.46 as=0.4176 ps=3.46 w=1.44 l=1.44
X179 CDAC_v3_0.OUT CDAC_v3_0.switch_6.Z.t117 sky130_fd_pr__cap_mim_m3_1 l=6.88 w=6.88
X180 GND.t233 GND.t234 sky130_fd_pr__cap_mim_m3_1 l=6.88 w=6.88
X181 CDAC_v3_0.OUT CDAC_v3_0.switch_6.Z.t116 sky130_fd_pr__cap_mim_m3_1 l=6.88 w=6.88
X182 a_3059_56723# Ring_Counter_0.D_FlipFlop_13.Inverter_1.Vout.t2 Ring_Counter_0.D_FlipFlop_13.Nand_Gate_1.Vout.t1 GND.t15 sky130_fd_pr__nfet_g5v0d10v5 ad=0.4176 pd=3.46 as=0.4176 ps=3.46 w=1.44 l=1.44
X183 VDD.t475 D_FlipFlop_6.3-input-nand_2.Vout.t4 D_FlipFlop_6.Nand_Gate_0.Vout VDD.t247 sky130_fd_pr__pfet_g5v0d10v5 ad=0.4176 pd=3.46 as=0.4176 ps=3.46 w=1.44 l=0.72
X184 CDAC_v3_0.OUT CDAC_v3_0.switch_7.Z.t55 sky130_fd_pr__cap_mim_m3_1 l=6.88 w=6.88
X185 D_FlipFlop_0.3-input-nand_1.Vout D_FlipFlop_0.CLK.t3 a_50544_48405# GND.t577 sky130_fd_pr__nfet_g5v0d10v5 ad=0.4176 pd=3.46 as=0.4176 ps=3.46 w=1.44 l=1.44
X186 D_FlipFlop_2.3-input-nand_2.C.t1 D_FlipFlop_2.3-input-nand_2.Vout.t5 a_34992_48405# GND.t643 sky130_fd_pr__nfet_g5v0d10v5 ad=0.4176 pd=3.46 as=0.4176 ps=3.46 w=1.44 l=1.44
X187 GND.t665 EN.t11 a_12901_55365# GND.t20 sky130_fd_pr__nfet_g5v0d10v5 ad=0.4176 pd=3.46 as=0.4176 ps=3.46 w=1.44 l=1.44
X188 CDAC_v3_0.OUT CDAC_v3_0.switch_6.Z.t115 sky130_fd_pr__cap_mim_m3_1 l=6.88 w=6.88
X189 CDAC_v3_0.OUT CDAC_v3_0.switch_6.Z.t114 sky130_fd_pr__cap_mim_m3_1 l=6.88 w=6.88
X190 VDD.t191 Ring_Counter_0.D_FlipFlop_13.Qbar Nand_Gate_0.A.t1 VDD.t186 sky130_fd_pr__pfet_g5v0d10v5 ad=0.4176 pd=3.46 as=0.4176 ps=3.46 w=1.44 l=0.72
X191 a_34285_60797# CLK.t12 Ring_Counter_0.D_FlipFlop_5.3-input-nand_0.Vout GND.t7 sky130_fd_pr__nfet_g5v0d10v5 ad=0.4176 pd=3.46 as=0.4176 ps=3.46 w=1.44 l=1.44
X192 D_FlipFlop_2.Qbar D_FlipFlop_7.nCLR.t9 VDD.t220 VDD.t219 sky130_fd_pr__pfet_g5v0d10v5 ad=0.4176 pd=3.46 as=0.4176 ps=3.46 w=1.44 l=0.72
X193 Ring_Counter_0.D_FlipFlop_15.3-input-nand_2.Vout.t2 Ring_Counter_0.D_FlipFlop_15.3-input-nand_0.Vout VDD.t467 VDD.t98 sky130_fd_pr__pfet_g5v0d10v5 ad=0.4176 pd=3.46 as=0.4176 ps=3.46 w=1.44 l=0.72
X194 VDD.t572 EN.t12 D_FlipFlop_5.nPRE.t2 VDD.t77 sky130_fd_pr__pfet_g5v0d10v5 ad=0.4176 pd=3.46 as=0.4176 ps=3.46 w=1.44 l=0.72
X195 CDAC_v3_0.OUT CDAC_v3_0.switch_6.Z.t113 sky130_fd_pr__cap_mim_m3_1 l=6.88 w=6.88
X196 VDD.t1 Ring_Counter_0.D_FlipFlop_2.3-input-nand_2.Vout.t4 Ring_Counter_0.D_FlipFlop_2.3-input-nand_2.C.t0 VDD.t0 sky130_fd_pr__pfet_g5v0d10v5 ad=0.4176 pd=3.46 as=0.4176 ps=3.46 w=1.44 l=0.72
X197 D_FlipFlop_0.Qbar Q7.t4 VDD.t440 VDD.t405 sky130_fd_pr__pfet_g5v0d10v5 ad=0.4176 pd=3.46 as=0.4176 ps=3.46 w=1.44 l=0.72
X198 VDD.t571 EN.t13 Ring_Counter_0.D_FlipFlop_14.3-input-nand_2.Vout.t1 VDD.t18 sky130_fd_pr__pfet_g5v0d10v5 ad=0.4176 pd=3.46 as=0.4176 ps=3.46 w=1.44 l=0.72
X199 VDD.t823 Q1.t4 CDAC_v3_0.switch_0.Z.t1 GND.t631 sky130_fd_pr__nfet_g5v0d10v5 ad=0.4176 pd=3.46 as=0.4176 ps=3.46 w=1.44 l=1.44
X200 CDAC_v3_0.OUT CDAC_v3_0.switch_7.Z.t54 sky130_fd_pr__cap_mim_m3_1 l=6.88 w=6.88
X201 VDD.t385 Ring_Counter_0.D_FlipFlop_4.3-input-nand_2.C.t4 Ring_Counter_0.D_FlipFlop_4.3-input-nand_2.Vout.t1 VDD.t133 sky130_fd_pr__pfet_g5v0d10v5 ad=0.4176 pd=3.46 as=0.4176 ps=3.46 w=1.44 l=0.72
X202 Ring_Counter_0.D_FlipFlop_10.Nand_Gate_1.Vout.t0 Ring_Counter_0.D_FlipFlop_10.3-input-nand_2.C.t5 VDD.t74 VDD.t24 sky130_fd_pr__pfet_g5v0d10v5 ad=0.4176 pd=3.46 as=0.4176 ps=3.46 w=1.44 l=0.72
X203 CDAC_v3_0.OUT CDAC_v3_0.switch_2.Z.t5 sky130_fd_pr__cap_mim_m3_1 l=6.88 w=6.88
X204 D_FlipFlop_3.3-input-nand_0.Vout D_FlipFlop_3.CLK.t3 VDD.t396 VDD.t395 sky130_fd_pr__pfet_g5v0d10v5 ad=0.4176 pd=3.46 as=0.4176 ps=3.46 w=1.44 l=0.72
X205 VDD.t646 Nand_Gate_2.A.t4 Ring_Counter_0.D_FlipFlop_12.3-input-nand_1.B VDD.t22 sky130_fd_pr__pfet_g5v0d10v5 ad=0.4176 pd=3.46 as=0.4176 ps=3.46 w=1.44 l=0.72
X206 a_n7633_61411# Ring_Counter_0.D_FlipFlop_16.3-input-nand_1.B a_n7633_60797# GND.t23 sky130_fd_pr__nfet_g5v0d10v5 ad=0.4176 pd=3.46 as=0.4176 ps=3.46 w=1.44 l=1.44
X207 D_FlipFlop_5.3-input-nand_1.B D_FlipFlop_7.D.t6 GND.t485 GND.t484 sky130_fd_pr__nfet_g5v0d10v5 ad=0.4176 pd=3.46 as=0.4176 ps=3.46 w=1.44 l=1.44
X208 D_FlipFlop_7.Qbar Q0.t5 a_n4744_48405# GND.t355 sky130_fd_pr__nfet_g5v0d10v5 ad=0.4176 pd=3.46 as=0.4176 ps=3.46 w=1.44 l=1.44
X209 CDAC_v3_0.OUT CDAC_v3_0.switch_7.Z.t53 sky130_fd_pr__cap_mim_m3_1 l=6.88 w=6.88