* NGSPICE file created from SAR-ADC-using-Sky130-PDK.ext - technology: sky130A

.subckt SAR-ADC-using-Sky130-PDK VDD Vin Q0 Vbias EN Q1 CLK Q2 Q3 Q4 Q5 Q6 Q7 GND
X0 Comparator_0.Vinm CDAC8_0.switch_7.Z.t131 sky130_fd_pr__cap_mim_m3_2 l=2 w=22.7
X1 a_64511_52572# EN.t0 GND.t460 GND.t459 sky130_fd_pr__nfet_g5v0d10v5 ad=0.4176 pd=3.46 as=0.4176 ps=3.46 w=1.44 l=1.44
X2 a_45761_13083# CLK.t0 RingCounter_0.D_FlipFlop_8.3-input-nand_1.Vout.t3 GND.t105 sky130_fd_pr__nfet_g5v0d10v5 ad=0.4176 pd=3.46 as=0.4176 ps=3.46 w=1.44 l=1.44
X3 GND.t458 EN.t1 a_29289_15797# GND.t457 sky130_fd_pr__nfet_g5v0d10v5 ad=0.4176 pd=3.46 as=0.4176 ps=3.46 w=1.44 l=1.44
X4 VDD.t603 Nand_Gate_4.A.t4 RingCounter_0.D_FlipFlop_8.Qbar VDD.t28 sky130_fd_pr__pfet_g5v0d10v5 ad=0.4176 pd=3.46 as=0.4176 ps=3.46 w=1.44 l=0.72
X5 D_FlipFlop_6.3-input-nand_2.C.t0 D_FlipFlop_6.3-input-nand_1.Vout VDD.t146 VDD.t145 sky130_fd_pr__pfet_g5v0d10v5 ad=0.4176 pd=3.46 as=0.4176 ps=3.46 w=1.44 l=0.72
X6 a_51499_49858# EN.t2 GND.t456 GND.t455 sky130_fd_pr__nfet_g5v0d10v5 ad=0.4176 pd=3.46 as=0.4176 ps=3.46 w=1.44 l=1.44
X7 GND.t452 EN.t3 a_46375_13083# GND.t451 sky130_fd_pr__nfet_g5v0d10v5 ad=0.4176 pd=3.46 as=0.4176 ps=3.46 w=1.44 l=1.44
X8 RingCounter_0.D_FlipFlop_3.3-input-nand_2.C.t1 VDD.t482 VDD.t484 VDD.t483 sky130_fd_pr__pfet_g5v0d10v5 ad=0.4176 pd=3.46 as=0.4176 ps=3.46 w=1.44 l=0.72
X9 a_100961_13083# CLK.t1 RingCounter_0.D_FlipFlop_11.3-input-nand_1.Vout.t3 GND.t106 sky130_fd_pr__nfet_g5v0d10v5 ad=0.4176 pd=3.46 as=0.4176 ps=3.46 w=1.44 l=1.44
X10 Comparator_0.Vinm CDAC8_0.switch_7.Z.t130 sky130_fd_pr__cap_mim_m3_2 l=2 w=22.7
X11 Comparator_0.Vinm CDAC8_0.switch_8.Z.t19 sky130_fd_pr__cap_mim_m3_2 l=2 w=22.7
X12 D_FlipFlop_7.Qbar D_FlipFlop_7.Nand_Gate_1.Vout VDD.t74 VDD.t73 sky130_fd_pr__pfet_g5v0d10v5 ad=0.4176 pd=3.46 as=0.4176 ps=3.46 w=1.44 l=0.72
X13 a_124399_52572# RingCounter_0.D_FlipFlop_6.Nand_Gate_0.Vout a_123785_52572# GND.t771 sky130_fd_pr__nfet_g5v0d10v5 ad=0.4176 pd=3.46 as=0.4176 ps=3.46 w=1.44 l=1.44
X14 a_68585_52572# EN.t4 GND.t454 GND.t453 sky130_fd_pr__nfet_g5v0d10v5 ad=0.4176 pd=3.46 as=0.4176 ps=3.46 w=1.44 l=1.44
X15 a_51369_13083# RingCounter_0.D_FlipFlop_15.Nand_Gate_1.Vout.t3 a_50755_13083# GND.t736 sky130_fd_pr__nfet_g5v0d10v5 ad=0.4176 pd=3.46 as=0.4176 ps=3.46 w=1.44 l=1.44
X16 Comparator_0.Vinm CDAC8_0.switch_6.Z.t67 sky130_fd_pr__cap_mim_m3_2 l=2 w=22.7
X17 VDD.t758 D_FlipFlop_1.3-input-nand_2.Vout.t4 D_FlipFlop_1.3-input-nand_2.C.t1 VDD.t107 sky130_fd_pr__pfet_g5v0d10v5 ad=0.4176 pd=3.46 as=0.4176 ps=3.46 w=1.44 l=0.72
X18 GND.t450 EN.t5 a_101575_13083# GND.t449 sky130_fd_pr__nfet_g5v0d10v5 ad=0.4176 pd=3.46 as=0.4176 ps=3.46 w=1.44 l=1.44
X19 a_65125_52572# RingCounter_0.D_FlipFlop_2.3-input-nand_0.Vout a_64511_52572# GND.t717 sky130_fd_pr__nfet_g5v0d10v5 ad=0.4176 pd=3.46 as=0.4176 ps=3.46 w=1.44 l=1.44
X20 Comparator_0.Vinm CDAC8_0.switch_6.Z.t66 sky130_fd_pr__cap_mim_m3_2 l=2 w=22.7
X21 Comparator_0.Vinm CDAC8_0.switch_6.Z.t65 sky130_fd_pr__cap_mim_m3_2 l=2 w=22.7
X22 D_FlipFlop_4.3-input-nand_0.Vout D_FlipFlop_7.D.t3 VDD.t971 VDD.t970 sky130_fd_pr__pfet_g5v0d10v5 ad=0.4176 pd=3.46 as=0.4176 ps=3.46 w=1.44 l=0.72
X23 VDD.t1095 CLK.t2 RingCounter_0.D_FlipFlop_13.3-input-nand_0.Vout.t2 VDD.t1043 sky130_fd_pr__pfet_g5v0d10v5 ad=0.4176 pd=3.46 as=0.4176 ps=3.46 w=1.44 l=0.72
X24 Nand_Gate_0.A.t1 RingCounter_0.D_FlipFlop_2.Qbar a_69199_52572# GND.t587 sky130_fd_pr__nfet_g5v0d10v5 ad=0.4176 pd=3.46 as=0.4176 ps=3.46 w=1.44 l=1.44
X25 Comparator_0.Vinm CDAC8_0.switch_6.Z.t64 sky130_fd_pr__cap_mim_m3_2 l=2 w=22.7
X26 VDD.t551 EN.t6 D_FlipFlop_1.3-input-nand_2.C.t0 VDD.t550 sky130_fd_pr__pfet_g5v0d10v5 ad=0.4176 pd=3.46 as=0.4176 ps=3.46 w=1.44 l=0.72
X27 a_52113_49858# RingCounter_0.D_FlipFlop_1.3-input-nand_1.B a_51499_49858# GND.t694 sky130_fd_pr__nfet_g5v0d10v5 ad=0.4176 pd=3.46 as=0.4176 ps=3.46 w=1.44 l=1.44
X28 RingCounter_0.D_FlipFlop_1.Nand_Gate_1.Vout.t1 RingCounter_0.D_FlipFlop_1.Inverter_1.Vout.t2 a_56187_49858# GND.t747 sky130_fd_pr__nfet_g5v0d10v5 ad=0.4176 pd=3.46 as=0.4176 ps=3.46 w=1.44 l=1.44
X29 VDD.t110 RingCounter_0.D_FlipFlop_3.3-input-nand_1.Vout.t4 RingCounter_0.D_FlipFlop_3.3-input-nand_2.C.t0 VDD.t109 sky130_fd_pr__pfet_g5v0d10v5 ad=0.4176 pd=3.46 as=0.4176 ps=3.46 w=1.44 l=0.72
X30 VDD.t36 RingCounter_0.D_FlipFlop_4.Nand_Gate_0.Vout Nand_Gate_2.A.t0 VDD.t35 sky130_fd_pr__pfet_g5v0d10v5 ad=0.4176 pd=3.46 as=0.4176 ps=3.46 w=1.44 l=0.72
X31 a_48565_16975# CLK.t3 GND.t108 GND.t107 sky130_fd_pr__nfet_g5v0d10v5 ad=0.4176 pd=3.46 as=0.4176 ps=3.46 w=1.44 l=1.44
X32 a_134283_17072# And_Gate_1.Vout.t2 D_FlipFlop_7.3-input-nand_1.Vout GND.t272 sky130_fd_pr__nfet_g5v0d10v5 ad=0.4176 pd=3.46 as=0.4176 ps=3.46 w=1.44 l=1.44
X33 VDD.t634 Nand_Gate_2.B.t4 RingCounter_0.D_FlipFlop_7.3-input-nand_0.Vout VDD.t137 sky130_fd_pr__pfet_g5v0d10v5 ad=0.4176 pd=3.46 as=0.4176 ps=3.46 w=1.44 l=0.72
X34 VDD.t939 RingCounter_0.D_FlipFlop_14.Inverter_1.Vout.t2 RingCounter_0.D_FlipFlop_14.Nand_Gate_1.Vout.t0 VDD.t938 sky130_fd_pr__pfet_g5v0d10v5 ad=0.4176 pd=3.46 as=0.4176 ps=3.46 w=1.44 l=0.72
X35 a_123785_52572# EN.t7 GND.t448 GND.t447 sky130_fd_pr__nfet_g5v0d10v5 ad=0.4176 pd=3.46 as=0.4176 ps=3.46 w=1.44 l=1.44
X36 VDD.t133 And_Gate_4.Vout.t2 D_FlipFlop_2.3-input-nand_1.Vout VDD.t132 sky130_fd_pr__pfet_g5v0d10v5 ad=0.4176 pd=3.46 as=0.4176 ps=3.46 w=1.44 l=0.72
X37 D_FlipFlop_0.CLK.t1 And_Gate_7.Nand_Gate_0.Vout GND.t83 GND.t82 sky130_fd_pr__nfet_g5v0d10v5 ad=0.4176 pd=3.46 as=0.4176 ps=3.46 w=1.44 l=1.44
X38 a_134283_27764# And_Gate_3.Vout.t2 D_FlipFlop_4.3-input-nand_1.Vout GND.t585 sky130_fd_pr__nfet_g5v0d10v5 ad=0.4176 pd=3.46 as=0.4176 ps=3.46 w=1.44 l=1.44
X39 a_71017_47663# Nand_Gate_0.A.t4 GND.t89 GND.t88 sky130_fd_pr__nfet_g5v0d10v5 ad=0.4176 pd=3.46 as=0.4176 ps=3.46 w=1.44 l=1.44
X40 a_74807_15797# RingCounter_0.D_FlipFlop_13.Inverter_1.Vout.t2 RingCounter_0.D_FlipFlop_13.Nand_Gate_0.Vout GND.t795 sky130_fd_pr__nfet_g5v0d10v5 ad=0.4176 pd=3.46 as=0.4176 ps=3.46 w=1.44 l=1.44
X41 D_FlipFlop_2.Nand_Gate_1.Vout D_FlipFlop_2.3-input-nand_2.C.t4 VDD.t20 VDD.t19 sky130_fd_pr__pfet_g5v0d10v5 ad=0.4176 pd=3.46 as=0.4176 ps=3.46 w=1.44 l=0.72
X42 Comparator_0.Vinm CDAC8_0.switch_9.Z.t35 sky130_fd_pr__cap_mim_m3_2 l=2 w=22.7
X43 Nand_Gate_5.B.t1 RingCounter_0.D_FlipFlop_6.Qbar a_124399_52572# GND.t244 sky130_fd_pr__nfet_g5v0d10v5 ad=0.4176 pd=3.46 as=0.4176 ps=3.46 w=1.44 l=1.44
X44 GND.t149 VDD.t1108 a_51369_13083# GND.t148 sky130_fd_pr__nfet_g5v0d10v5 ad=0.4176 pd=3.46 as=0.4176 ps=3.46 w=1.44 l=1.44
X45 Comparator_0.Vinm CDAC8_0.switch_7.Z.t129 sky130_fd_pr__cap_mim_m3_2 l=2 w=22.7
X46 a_79495_15797# Nand_Gate_6.A.t4 a_78881_15797# GND.t96 sky130_fd_pr__nfet_g5v0d10v5 ad=0.4176 pd=3.46 as=0.4176 ps=3.46 w=1.44 l=1.44
X47 Nand_Gate_6.A.t1 RingCounter_0.D_FlipFlop_12.Nand_Gate_0.Vout VDD.t821 VDD.t788 sky130_fd_pr__pfet_g5v0d10v5 ad=0.4176 pd=3.46 as=0.4176 ps=3.46 w=1.44 l=0.72
X48 GND.t288 FFCLR.t4 a_132925_37007# GND.t287 sky130_fd_pr__nfet_g5v0d10v5 ad=0.4176 pd=3.46 as=0.4176 ps=3.46 w=1.44 l=1.44
X49 RingCounter_0.D_FlipFlop_7.Nand_Gate_1.Vout.t1 RingCounter_0.D_FlipFlop_7.Inverter_1.Vout.t2 a_111387_49858# GND.t757 sky130_fd_pr__nfet_g5v0d10v5 ad=0.4176 pd=3.46 as=0.4176 ps=3.46 w=1.44 l=1.44
X50 a_107927_13083# RingCounter_0.D_FlipFlop_9.Inverter_1.Vout.t2 RingCounter_0.D_FlipFlop_9.Nand_Gate_1.Vout.t2 GND.t762 sky130_fd_pr__nfet_g5v0d10v5 ad=0.4176 pd=3.46 as=0.4176 ps=3.46 w=1.44 l=1.44
X51 a_56187_49858# RingCounter_0.D_FlipFlop_1.3-input-nand_2.C.t4 GND.t527 GND.t526 sky130_fd_pr__nfet_g5v0d10v5 ad=0.4176 pd=3.46 as=0.4176 ps=3.46 w=1.44 l=1.44
X52 Comparator_0.Vinm CDAC8_0.switch_7.Z.t128 sky130_fd_pr__cap_mim_m3_2 l=2 w=22.7
X53 Comparator_0.Vinm CDAC8_0.switch_9.Z.t34 sky130_fd_pr__cap_mim_m3_2 l=2 w=22.7
X54 GND.t151 VDD.t1109 a_57415_15797# GND.t150 sky130_fd_pr__nfet_g5v0d10v5 ad=0.4176 pd=3.46 as=0.4176 ps=3.46 w=1.44 l=1.44
X55 a_134897_43285# D_FlipFlop_7.D.t4 a_134283_43285# GND.t566 sky130_fd_pr__nfet_g5v0d10v5 ad=0.4176 pd=3.46 as=0.4176 ps=3.46 w=1.44 l=1.44
X56 Nand_Gate_2.A.t3 RingCounter_0.D_FlipFlop_4.Qbar VDD.t596 VDD.t326 sky130_fd_pr__pfet_g5v0d10v5 ad=0.4176 pd=3.46 as=0.4176 ps=3.46 w=1.44 l=0.72
X57 a_108671_52572# EN.t8 GND.t446 GND.t445 sky130_fd_pr__nfet_g5v0d10v5 ad=0.4176 pd=3.46 as=0.4176 ps=3.46 w=1.44 l=1.44
X58 VDD.t800 RingCounter_0.D_FlipFlop_10.Inverter_1.Vout.t2 RingCounter_0.D_FlipFlop_10.Nand_Gate_0.Vout VDD.t799 sky130_fd_pr__pfet_g5v0d10v5 ad=0.4176 pd=3.46 as=0.4176 ps=3.46 w=1.44 l=0.72
X59 Comparator_0.Vinm CDAC8_0.switch_8.Z.t18 sky130_fd_pr__cap_mim_m3_2 l=2 w=22.7
X60 VDD.t549 EN.t9 RingCounter_0.D_FlipFlop_14.3-input-nand_1.Vout.t0 VDD.t414 sky130_fd_pr__pfet_g5v0d10v5 ad=0.4176 pd=3.46 as=0.4176 ps=3.46 w=1.44 l=0.72
X61 RingCounter_0.D_FlipFlop_7.3-input-nand_2.Vout.t0 RingCounter_0.D_FlipFlop_7.3-input-nand_2.C.t4 a_109285_52572# GND.t781 sky130_fd_pr__nfet_g5v0d10v5 ad=0.4176 pd=3.46 as=0.4176 ps=3.46 w=1.44 l=1.44
X62 Comparator_0.Vinm CDAC8_0.switch_7.Z.t127 sky130_fd_pr__cap_mim_m3_2 l=2 w=22.7
X63 RingCounter_0.D_FlipFlop_6.3-input-nand_2.C.t0 VDD.t479 VDD.t481 VDD.t480 sky130_fd_pr__pfet_g5v0d10v5 ad=0.4176 pd=3.46 as=0.4176 ps=3.46 w=1.44 l=0.72
X64 RingCounter_0.D_FlipFlop_17.3-input-nand_2.C.t1 EN.t10 VDD.t548 VDD.t432 sky130_fd_pr__pfet_g5v0d10v5 ad=0.4176 pd=3.46 as=0.4176 ps=3.46 w=1.44 l=0.72
X65 D_FlipFlop_1.3-input-nand_2.Vout.t2 D_FlipFlop_1.3-input-nand_0.Vout VDD.t793 VDD.t792 sky130_fd_pr__pfet_g5v0d10v5 ad=0.4176 pd=3.46 as=0.4176 ps=3.46 w=1.44 l=0.72
X66 VDD.t136 RingCounter_0.D_FlipFlop_5.3-input-nand_0.Vout RingCounter_0.D_FlipFlop_5.3-input-nand_2.Vout.t1 VDD.t135 sky130_fd_pr__pfet_g5v0d10v5 ad=0.4176 pd=3.46 as=0.4176 ps=3.46 w=1.44 l=0.72
X67 a_76909_15797# RingCounter_0.D_FlipFlop_13.3-input-nand_2.C.t4 RingCounter_0.D_FlipFlop_13.3-input-nand_2.Vout.t0 GND.t645 sky130_fd_pr__nfet_g5v0d10v5 ad=0.4176 pd=3.46 as=0.4176 ps=3.46 w=1.44 l=1.44
X68 Comparator_0.Vinm CDAC8_0.switch_6.Z.t63 sky130_fd_pr__cap_mim_m3_2 l=2 w=22.7
X69 VDD.t547 EN.t11 Nand_Gate_6.A.t0 VDD.t393 sky130_fd_pr__pfet_g5v0d10v5 ad=0.4176 pd=3.46 as=0.4176 ps=3.46 w=1.44 l=0.72
X70 GND.t153 VDD.t1110 a_112615_15797# GND.t152 sky130_fd_pr__nfet_g5v0d10v5 ad=0.4176 pd=3.46 as=0.4176 ps=3.46 w=1.44 l=1.44
X71 D_FlipFlop_0.3-input-nand_2.Vout.t3 D_FlipFlop_0.3-input-nand_0.Vout VDD.t738 VDD.t731 sky130_fd_pr__pfet_g5v0d10v5 ad=0.4176 pd=3.46 as=0.4176 ps=3.46 w=1.44 l=0.72
X72 a_110029_13083# RingCounter_0.D_FlipFlop_9.3-input-nand_2.Vout.t4 RingCounter_0.D_FlipFlop_9.3-input-nand_2.C.t2 GND.t548 sky130_fd_pr__nfet_g5v0d10v5 ad=0.4176 pd=3.46 as=0.4176 ps=3.46 w=1.44 l=1.44
X73 VDD.t49 RingCounter_0.D_FlipFlop_12.3-input-nand_2.Vout.t4 RingCounter_0.D_FlipFlop_12.3-input-nand_2.C.t1 VDD.t48 sky130_fd_pr__pfet_g5v0d10v5 ad=0.4176 pd=3.46 as=0.4176 ps=3.46 w=1.44 l=0.72
X74 RingCounter_0.D_FlipFlop_2.Inverter_1.Vout.t1 CLK.t4 GND.t110 GND.t109 sky130_fd_pr__nfet_g5v0d10v5 ad=0.4176 pd=3.46 as=0.4176 ps=3.46 w=1.44 l=1.44
X75 RingCounter_0.D_FlipFlop_3.3-input-nand_2.Vout.t1 RingCounter_0.D_FlipFlop_3.3-input-nand_2.C.t4 VDD.t891 VDD.t890 sky130_fd_pr__pfet_g5v0d10v5 ad=0.4176 pd=3.46 as=0.4176 ps=3.46 w=1.44 l=0.72
X76 GND.t221 D_FlipFlop_5.3-input-nand_2.C.t4 a_130209_24200# GND.t220 sky130_fd_pr__nfet_g5v0d10v5 ad=0.4176 pd=3.46 as=0.4176 ps=3.46 w=1.44 l=1.44
X77 a_75898_39392# Q6.t4 GND.t131 GND.t130 sky130_fd_pr__nfet_g5v0d10v5 ad=0.4176 pd=3.46 as=0.4176 ps=3.46 w=1.44 l=1.44
X78 Comparator_0.Vinm CDAC8_0.switch_7.Z.t126 sky130_fd_pr__cap_mim_m3_2 l=2 w=22.7
X79 CDAC8_0.switch_2.Z.t0 a_75898_21528# VDD.t43 VDD.t42 sky130_fd_pr__pfet_g5v0d10v5 ad=0.4176 pd=3.46 as=0.4176 ps=3.46 w=1.44 l=0.72
X80 Comparator_0.Vinm CDAC8_0.switch_8.Z.t17 sky130_fd_pr__cap_mim_m3_2 l=2 w=22.7
X81 VDD.t860 Q3.t4 CDAC8_0.switch_5.Z.t2 GND.t737 sky130_fd_pr__nfet_g5v0d10v5 ad=0.4176 pd=3.46 as=0.4176 ps=3.46 w=1.44 l=1.44
X82 Nand_Gate_5.Vout.t0 Nand_Gate_5.B.t4 a_115177_47663# GND.t872 sky130_fd_pr__nfet_g5v0d10v5 ad=0.4176 pd=3.46 as=0.4176 ps=3.46 w=1.44 l=1.44
X83 a_109285_52572# RingCounter_0.D_FlipFlop_7.3-input-nand_0.Vout a_108671_52572# GND.t514 sky130_fd_pr__nfet_g5v0d10v5 ad=0.4176 pd=3.46 as=0.4176 ps=3.46 w=1.44 l=1.44
X84 GND.t522 Nand_Gate_6.B.t4 a_134897_24200# GND.t521 sky130_fd_pr__nfet_g5v0d10v5 ad=0.4176 pd=3.46 as=0.4176 ps=3.46 w=1.44 l=1.44
X85 VDD.t271 FFCLR.t5 D_FlipFlop_5.3-input-nand_0.Vout VDD.t270 sky130_fd_pr__pfet_g5v0d10v5 ad=0.4176 pd=3.46 as=0.4176 ps=3.46 w=1.44 l=0.72
X86 VDD.t1094 CLK.t5 RingCounter_0.D_FlipFlop_8.3-input-nand_0.Vout.t2 VDD.t1040 sky130_fd_pr__pfet_g5v0d10v5 ad=0.4176 pd=3.46 as=0.4176 ps=3.46 w=1.44 l=0.72
X87 GND.t112 CLK.t6 RingCounter_0.D_FlipFlop_13.Inverter_1.Vout.t1 GND.t111 sky130_fd_pr__nfet_g5v0d10v5 ad=0.4176 pd=3.46 as=0.4176 ps=3.46 w=1.44 l=1.44
X88 VDD.t15 RingCounter_0.D_FlipFlop_5.Nand_Gate_1.Vout.t3 RingCounter_0.D_FlipFlop_5.Qbar VDD.t14 sky130_fd_pr__pfet_g5v0d10v5 ad=0.4176 pd=3.46 as=0.4176 ps=3.46 w=1.44 l=0.72
X89 RingCounter_0.D_FlipFlop_5.3-input-nand_1.B Nand_Gate_2.A.t4 GND.t664 GND.t663 sky130_fd_pr__nfet_g5v0d10v5 ad=0.4176 pd=3.46 as=0.4176 ps=3.46 w=1.44 l=1.44
X90 RingCounter_0.D_FlipFlop_17.Qbar EN.t12 VDD.t546 VDD.t429 sky130_fd_pr__pfet_g5v0d10v5 ad=0.4176 pd=3.46 as=0.4176 ps=3.46 w=1.44 l=0.72
X91 RingCounter_0.D_FlipFlop_5.3-input-nand_0.Vout VDD.t476 VDD.t478 VDD.t477 sky130_fd_pr__pfet_g5v0d10v5 ad=0.4176 pd=3.46 as=0.4176 ps=3.46 w=1.44 l=0.72
X92 VDD.t861 Q3.t5 D_FlipFlop_4.Qbar VDD.t139 sky130_fd_pr__pfet_g5v0d10v5 ad=0.4176 pd=3.46 as=0.4176 ps=3.46 w=1.44 l=0.72
X93 VDD.t716 RingCounter_0.D_FlipFlop_17.3-input-nand_1.Vout RingCounter_0.D_FlipFlop_17.3-input-nand_2.C.t2 VDD.t715 sky130_fd_pr__pfet_g5v0d10v5 ad=0.4176 pd=3.46 as=0.4176 ps=3.46 w=1.44 l=0.72
X94 RingCounter_0.D_FlipFlop_6.Inverter_1.Vout.t1 CLK.t7 GND.t24 GND.t23 sky130_fd_pr__nfet_g5v0d10v5 ad=0.4176 pd=3.46 as=0.4176 ps=3.46 w=1.44 l=1.44
X95 VDD.t642 RingCounter_0.D_FlipFlop_16.Inverter_1.Vout.t2 RingCounter_0.D_FlipFlop_16.Nand_Gate_1.Vout.t0 VDD.t641 sky130_fd_pr__pfet_g5v0d10v5 ad=0.4176 pd=3.46 as=0.4176 ps=3.46 w=1.44 l=0.72
X96 a_86591_49858# VDD.t1111 GND.t155 GND.t154 sky130_fd_pr__nfet_g5v0d10v5 ad=0.4176 pd=3.46 as=0.4176 ps=3.46 w=1.44 l=1.44
X97 RingCounter_0.D_FlipFlop_17.Qbar FFCLR.t6 VDD.t273 VDD.t272 sky130_fd_pr__pfet_g5v0d10v5 ad=0.4176 pd=3.46 as=0.4176 ps=3.46 w=1.44 l=0.72
X98 VDD.t1093 CLK.t8 RingCounter_0.D_FlipFlop_11.3-input-nand_0.Vout.t2 VDD.t1037 sky130_fd_pr__pfet_g5v0d10v5 ad=0.4176 pd=3.46 as=0.4176 ps=3.46 w=1.44 l=0.72
X99 CDAC8_0.switch_5.Z.t1 a_75898_28676# GND.t622 GND.t621 sky130_fd_pr__nfet_g5v0d10v5 ad=0.4176 pd=3.46 as=0.4176 ps=3.46 w=1.44 l=1.44
X100 a_115177_47663# Nand_Gate_5.A.t4 GND.t79 GND.t78 sky130_fd_pr__nfet_g5v0d10v5 ad=0.4176 pd=3.46 as=0.4176 ps=3.46 w=1.44 l=1.44
X101 a_118967_15797# RingCounter_0.D_FlipFlop_10.Inverter_1.Vout.t3 RingCounter_0.D_FlipFlop_10.Nand_Gate_0.Vout GND.t692 sky130_fd_pr__nfet_g5v0d10v5 ad=0.4176 pd=3.46 as=0.4176 ps=3.46 w=1.44 l=1.44
X102 RingCounter_0.D_FlipFlop_5.Qbar VDD.t473 VDD.t475 VDD.t474 sky130_fd_pr__pfet_g5v0d10v5 ad=0.4176 pd=3.46 as=0.4176 ps=3.46 w=1.44 l=0.72
X103 a_138533_35417.t2 D_FlipFlop_7.D.t0 sky130_fd_pr__cap_mim_m3_2 l=5.35 w=2
X104 Nand_Gate_4.B.t1 RingCounter_0.D_FlipFlop_15.Nand_Gate_0.Vout VDD.t553 VDD.t552 sky130_fd_pr__pfet_g5v0d10v5 ad=0.4176 pd=3.46 as=0.4176 ps=3.46 w=1.44 l=0.72
X105 Comparator_0.Vinm CDAC8_0.switch_9.Z.t33 sky130_fd_pr__cap_mim_m3_2 l=2 w=22.7
X106 a_132311_40571# D_FlipFlop_3.3-input-nand_2.Vout.t4 D_FlipFlop_3.3-input-nand_2.C.t1 GND.t59 sky130_fd_pr__nfet_g5v0d10v5 ad=0.4176 pd=3.46 as=0.4176 ps=3.46 w=1.44 l=1.44
X107 Comparator_0.Vinm CDAC8_0.switch_7.Z.t125 sky130_fd_pr__cap_mim_m3_2 l=2 w=22.7
X108 GND.t860 D_FlipFlop_7.D.t5 D_FlipFlop_5.3-input-nand_1.B GND.t859 sky130_fd_pr__nfet_g5v0d10v5 ad=0.4176 pd=3.46 as=0.4176 ps=3.46 w=1.44 l=1.44
X109 VDD.t608 D_FlipFlop_3.3-input-nand_2.C.t4 D_FlipFlop_3.3-input-nand_2.Vout.t1 VDD.t197 sky130_fd_pr__pfet_g5v0d10v5 ad=0.4176 pd=3.46 as=0.4176 ps=3.46 w=1.44 l=0.72
X110 GND.t617 RingCounter_0.D_FlipFlop_12.3-input-nand_2.C.t4 a_85847_13083# GND.t616 sky130_fd_pr__nfet_g5v0d10v5 ad=0.4176 pd=3.46 as=0.4176 ps=3.46 w=1.44 l=1.44
X111 VDD.t274 FFCLR.t7 D_FlipFlop_2.3-input-nand_0.Vout VDD.t91 sky130_fd_pr__pfet_g5v0d10v5 ad=0.4176 pd=3.46 as=0.4176 ps=3.46 w=1.44 l=0.72
X112 RingCounter_0.D_FlipFlop_5.Qbar Nand_Gate_2.B.t5 VDD.t636 VDD.t635 sky130_fd_pr__pfet_g5v0d10v5 ad=0.4176 pd=3.46 as=0.4176 ps=3.46 w=1.44 l=0.72
X113 Comparator_0.Vinm CDAC8_0.switch_7.Z.t124 sky130_fd_pr__cap_mim_m3_2 l=2 w=22.7
X114 a_128237_39721# D_FlipFlop_2.Qbar Q6.t2 GND.t493 sky130_fd_pr__nfet_g5v0d10v5 ad=0.4176 pd=3.46 as=0.4176 ps=3.46 w=1.44 l=1.44
X115 D_FlipFlop_4.Qbar D_FlipFlop_4.Nand_Gate_1.Vout VDD.t45 VDD.t44 sky130_fd_pr__pfet_g5v0d10v5 ad=0.4176 pd=3.46 as=0.4176 ps=3.46 w=1.44 l=0.72
X116 VDD.t760 Nand_Gate_2.A.t5 D_FlipFlop_3.3-input-nand_2.Vout.t0 VDD.t759 sky130_fd_pr__pfet_g5v0d10v5 ad=0.4176 pd=3.46 as=0.4176 ps=3.46 w=1.44 l=0.72
X117 VDD.t967 D_FlipFlop_0.3-input-nand_2.Vout.t4 D_FlipFlop_0.3-input-nand_2.C.t1 VDD.t672 sky130_fd_pr__pfet_g5v0d10v5 ad=0.4176 pd=3.46 as=0.4176 ps=3.46 w=1.44 l=0.72
X118 VDD.t771 RingCounter_0.D_FlipFlop_17.3-input-nand_2.C.t4 RingCounter_0.D_FlipFlop_17.Nand_Gate_1.Vout VDD.t240 sky130_fd_pr__pfet_g5v0d10v5 ad=0.4176 pd=3.46 as=0.4176 ps=3.46 w=1.44 l=0.72
X119 VDD.t880 D_FlipFlop_6.Inverter_1.Vout D_FlipFlop_6.Nand_Gate_1.Vout VDD.t878 sky130_fd_pr__pfet_g5v0d10v5 ad=0.4176 pd=3.46 as=0.4176 ps=3.46 w=1.44 l=0.72
X120 a_87205_49858# RingCounter_0.D_FlipFlop_4.3-input-nand_1.Vout.t4 a_86591_49858# GND.t714 sky130_fd_pr__nfet_g5v0d10v5 ad=0.4176 pd=3.46 as=0.4176 ps=3.46 w=1.44 l=1.44
X121 GND.t665 Nand_Gate_2.A.t6 a_128851_43285# GND.t575 sky130_fd_pr__nfet_g5v0d10v5 ad=0.4176 pd=3.46 as=0.4176 ps=3.46 w=1.44 l=1.44
X122 GND.t126 D_FlipFlop_6.3-input-nand_2.C.t4 a_130209_20636# GND.t125 sky130_fd_pr__nfet_g5v0d10v5 ad=0.4176 pd=3.46 as=0.4176 ps=3.46 w=1.44 l=1.44
X123 VDD.t275 FFCLR.t8 D_FlipFlop_0.3-input-nand_2.C.t0 VDD.t2 sky130_fd_pr__pfet_g5v0d10v5 ad=0.4176 pd=3.46 as=0.4176 ps=3.46 w=1.44 l=0.72
X124 VDD.t545 EN.t13 RingCounter_0.D_FlipFlop_16.3-input-nand_1.Vout.t1 VDD.t408 sky130_fd_pr__pfet_g5v0d10v5 ad=0.4176 pd=3.46 as=0.4176 ps=3.46 w=1.44 l=0.72
X125 RingCounter_0.D_FlipFlop_17.3-input-nand_0.Vout.t3 CLK.t9 a_41073_52572# GND.t25 sky130_fd_pr__nfet_g5v0d10v5 ad=0.4176 pd=3.46 as=0.4176 ps=3.46 w=1.44 l=1.44
X126 VDD.t544 EN.t14 RingCounter_0.D_FlipFlop_9.3-input-nand_2.Vout.t3 VDD.t390 sky130_fd_pr__pfet_g5v0d10v5 ad=0.4176 pd=3.46 as=0.4176 ps=3.46 w=1.44 l=0.72
X127 Comparator_0.Vinm CDAC8_0.switch_8.Z.t16 sky130_fd_pr__cap_mim_m3_2 l=2 w=22.7
X128 a_43789_15797# RingCounter_0.D_FlipFlop_8.3-input-nand_2.C.t4 RingCounter_0.D_FlipFlop_8.3-input-nand_2.Vout.t2 GND.t235 sky130_fd_pr__nfet_g5v0d10v5 ad=0.4176 pd=3.46 as=0.4176 ps=3.46 w=1.44 l=1.44
X129 GND.t465 Nand_Gate_7.B.t4 a_134897_20636# GND.t313 sky130_fd_pr__nfet_g5v0d10v5 ad=0.4176 pd=3.46 as=0.4176 ps=3.46 w=1.44 l=1.44
X130 VDD.t277 FFCLR.t9 D_FlipFlop_6.3-input-nand_0.Vout VDD.t276 sky130_fd_pr__pfet_g5v0d10v5 ad=0.4176 pd=3.46 as=0.4176 ps=3.46 w=1.44 l=0.72
X131 a_128237_23350# D_FlipFlop_6.Qbar Q1.t1 GND.t631 sky130_fd_pr__nfet_g5v0d10v5 ad=0.4176 pd=3.46 as=0.4176 ps=3.46 w=1.44 l=1.44
X132 CDAC8_0.switch_6.Z.t2 a_75898_39392# VDD.t714 VDD.t713 sky130_fd_pr__pfet_g5v0d10v5 ad=0.4176 pd=3.46 as=0.4176 ps=3.46 w=1.44 l=0.72
X133 VDD.t543 EN.t15 Nand_Gate_4.B.t0 VDD.t387 sky130_fd_pr__pfet_g5v0d10v5 ad=0.4176 pd=3.46 as=0.4176 ps=3.46 w=1.44 l=0.72
X134 Comparator_0.Vinm CDAC8_0.switch_7.Z.t123 sky130_fd_pr__cap_mim_m3_2 l=2 w=22.7
X135 Comparator_0.Vinm CDAC8_0.switch_6.Z.t62 sky130_fd_pr__cap_mim_m3_2 l=2 w=22.7
X136 a_132925_40571# D_FlipFlop_3.3-input-nand_1.Vout a_132311_40571# GND.t505 sky130_fd_pr__nfet_g5v0d10v5 ad=0.4176 pd=3.46 as=0.4176 ps=3.46 w=1.44 l=1.44
X137 VDD.t1096 RingCounter_0.D_FlipFlop_15.3-input-nand_2.Vout.t4 RingCounter_0.D_FlipFlop_15.3-input-nand_2.C.t3 VDD.t214 sky130_fd_pr__pfet_g5v0d10v5 ad=0.4176 pd=3.46 as=0.4176 ps=3.46 w=1.44 l=0.72
X138 Comparator_0.Vinm CDAC8_0.switch_7.Z.t122 sky130_fd_pr__cap_mim_m3_2 l=2 w=22.7
X139 RingCounter_0.D_FlipFlop_17.3-input-nand_2.Vout.t2 RingCounter_0.D_FlipFlop_17.3-input-nand_2.C.t5 VDD.t773 VDD.t772 sky130_fd_pr__pfet_g5v0d10v5 ad=0.4176 pd=3.46 as=0.4176 ps=3.46 w=1.44 l=0.72
X140 CDAC8_0.switch_1.Z.t2 a_75898_18814# VDD.t806 VDD.t42 sky130_fd_pr__pfet_g5v0d10v5 ad=0.4176 pd=3.46 as=0.4176 ps=3.46 w=1.44 l=0.72
X141 a_75898_28676# Q3.t6 VDD.t17 VDD.t16 sky130_fd_pr__pfet_g5v0d10v5 ad=0.4176 pd=3.46 as=0.4176 ps=3.46 w=1.44 l=0.72
X142 a_134897_19786# D_FlipFlop_7.D.t6 a_134283_19786# GND.t254 sky130_fd_pr__nfet_g5v0d10v5 ad=0.4176 pd=3.46 as=0.4176 ps=3.46 w=1.44 l=1.44
X143 VDD.t38 RingCounter_0.D_FlipFlop_6.3-input-nand_0.Vout RingCounter_0.D_FlipFlop_6.3-input-nand_2.Vout.t0 VDD.t37 sky130_fd_pr__pfet_g5v0d10v5 ad=0.4176 pd=3.46 as=0.4176 ps=3.46 w=1.44 l=0.72
X144 a_103765_47663# Nand_Gate_2.Vout.t3 GND.t728 GND.t727 sky130_fd_pr__nfet_g5v0d10v5 ad=0.4176 pd=3.46 as=0.4176 ps=3.46 w=1.44 l=1.44
X145 RingCounter_0.D_FlipFlop_2.3-input-nand_1.B Nand_Gate_3.B.t4 GND.t286 GND.t285 sky130_fd_pr__nfet_g5v0d10v5 ad=0.4176 pd=3.46 as=0.4176 ps=3.46 w=1.44 l=1.44
X146 GND.t27 CLK.t10 RingCounter_0.D_FlipFlop_8.Inverter_1.Vout.t1 GND.t26 sky130_fd_pr__nfet_g5v0d10v5 ad=0.4176 pd=3.46 as=0.4176 ps=3.46 w=1.44 l=1.44
X147 RingCounter_0.D_FlipFlop_2.3-input-nand_0.Vout VDD.t470 VDD.t472 VDD.t471 sky130_fd_pr__pfet_g5v0d10v5 ad=0.4176 pd=3.46 as=0.4176 ps=3.46 w=1.44 l=0.72
X148 VDD.t321 RingCounter_0.D_FlipFlop_2.3-input-nand_2.Vout.t4 RingCounter_0.D_FlipFlop_2.Nand_Gate_0.Vout VDD.t320 sky130_fd_pr__pfet_g5v0d10v5 ad=0.4176 pd=3.46 as=0.4176 ps=3.46 w=1.44 l=0.72
X149 And_Gate_3.Vout.t0 And_Gate_3.Nand_Gate_0.Vout VDD.t764 VDD.t763 sky130_fd_pr__pfet_g5v0d10v5 ad=0.4176 pd=3.46 as=0.4176 ps=3.46 w=1.44 l=0.72
X150 RingCounter_0.D_FlipFlop_3.Inverter_1.Vout.t0 CLK.t11 VDD.t1092 VDD.t1091 sky130_fd_pr__pfet_g5v0d10v5 ad=0.4176 pd=3.46 as=0.4176 ps=3.46 w=1.44 l=0.72
X151 Comparator_0.Vinm CDAC8_0.switch_6.Z.t61 sky130_fd_pr__cap_mim_m3_2 l=2 w=22.7
X152 VDD.t542 EN.t16 Nand_Gate_1.B.t2 VDD.t381 sky130_fd_pr__pfet_g5v0d10v5 ad=0.4176 pd=3.46 as=0.4176 ps=3.46 w=1.44 l=0.72
X153 VDD.t317 RingCounter_0.D_FlipFlop_9.3-input-nand_2.C.t4 RingCounter_0.D_FlipFlop_9.3-input-nand_2.Vout.t2 VDD.t316 sky130_fd_pr__pfet_g5v0d10v5 ad=0.4176 pd=3.46 as=0.4176 ps=3.46 w=1.44 l=0.72
X154 RingCounter_0.D_FlipFlop_5.3-input-nand_1.Vout.t1 CLK.t12 a_96273_49858# GND.t28 sky130_fd_pr__nfet_g5v0d10v5 ad=0.4176 pd=3.46 as=0.4176 ps=3.46 w=1.44 l=1.44
X155 GND.t494 Q7.t4 CDAC8_0.switch_7.Z.t2 VDD.t574 sky130_fd_pr__pfet_g5v0d10v5 ad=0.4176 pd=3.46 as=0.4176 ps=3.46 w=1.44 l=0.72
X156 VDD.t283 RingCounter_0.D_FlipFlop_6.3-input-nand_2.Vout.t4 RingCounter_0.D_FlipFlop_6.Nand_Gate_0.Vout VDD.t282 sky130_fd_pr__pfet_g5v0d10v5 ad=0.4176 pd=3.46 as=0.4176 ps=3.46 w=1.44 l=0.72
X157 GND.t277 RingCounter_0.D_FlipFlop_15.3-input-nand_2.C.t4 a_52727_13083# GND.t276 sky130_fd_pr__nfet_g5v0d10v5 ad=0.4176 pd=3.46 as=0.4176 ps=3.46 w=1.44 l=1.44
X158 VDD.t650 And_Gate_5.Vout.t2 D_FlipFlop_1.3-input-nand_1.Vout VDD.t649 sky130_fd_pr__pfet_g5v0d10v5 ad=0.4176 pd=3.46 as=0.4176 ps=3.46 w=1.44 l=0.72
X159 Comparator_0.Vinm CDAC8_0.switch_7.Z.t121 sky130_fd_pr__cap_mim_m3_2 l=2 w=22.7
X160 VDD.t267 Nand_Gate_3.B.t5 RingCounter_0.D_FlipFlop_2.3-input-nand_0.Vout VDD.t101 sky130_fd_pr__pfet_g5v0d10v5 ad=0.4176 pd=3.46 as=0.4176 ps=3.46 w=1.44 l=0.72
X161 Comparator_0.Vinm CDAC8_0.switch_7.Z.t120 sky130_fd_pr__cap_mim_m3_2 l=2 w=22.7
X162 D_FlipFlop_1.Nand_Gate_1.Vout D_FlipFlop_1.3-input-nand_2.C.t4 VDD.t106 VDD.t105 sky130_fd_pr__pfet_g5v0d10v5 ad=0.4176 pd=3.46 as=0.4176 ps=3.46 w=1.44 l=0.72
X163 a_57545_49858# VDD.t1112 GND.t157 GND.t156 sky130_fd_pr__nfet_g5v0d10v5 ad=0.4176 pd=3.46 as=0.4176 ps=3.46 w=1.44 l=1.44
X164 Comparator_0.Vinm CDAC8_0.switch_7.Z.t119 sky130_fd_pr__cap_mim_m3_2 l=2 w=22.7
X165 RingCounter_0.D_FlipFlop_2.Nand_Gate_0.Vout RingCounter_0.D_FlipFlop_2.Inverter_1.Vout.t2 VDD.t734 VDD.t733 sky130_fd_pr__pfet_g5v0d10v5 ad=0.4176 pd=3.46 as=0.4176 ps=3.46 w=1.44 l=0.72
X166 Comparator_0.Vinm CDAC8_0.switch_9.Z.t32 sky130_fd_pr__cap_mim_m3_2 l=2 w=22.7
X167 a_75898_42964# Q5.t4 VDD.t914 VDD.t913 sky130_fd_pr__pfet_g5v0d10v5 ad=0.4176 pd=3.46 as=0.4176 ps=3.46 w=1.44 l=0.72
X168 a_130209_33443# D_FlipFlop_1.Inverter_1.Vout D_FlipFlop_1.Nand_Gate_1.Vout GND.t43 sky130_fd_pr__nfet_g5v0d10v5 ad=0.4176 pd=3.46 as=0.4176 ps=3.46 w=1.44 l=1.44
X169 VDD.t653 D_FlipFlop_1.Inverter_1.Vout D_FlipFlop_1.Nand_Gate_0.Vout VDD.t651 sky130_fd_pr__pfet_g5v0d10v5 ad=0.4176 pd=3.46 as=0.4176 ps=3.46 w=1.44 l=0.72
X170 VDD.t605 RingCounter_0.D_FlipFlop_7.3-input-nand_0.Vout RingCounter_0.D_FlipFlop_7.3-input-nand_2.Vout.t3 VDD.t604 sky130_fd_pr__pfet_g5v0d10v5 ad=0.4176 pd=3.46 as=0.4176 ps=3.46 w=1.44 l=0.72
X171 VDD.t723 D_FlipFlop_0.Inverter_1.Vout D_FlipFlop_0.Nand_Gate_0.Vout VDD.t721 sky130_fd_pr__pfet_g5v0d10v5 ad=0.4176 pd=3.46 as=0.4176 ps=3.46 w=1.44 l=0.72
X172 a_112745_49858# VDD.t1113 GND.t159 GND.t158 sky130_fd_pr__nfet_g5v0d10v5 ad=0.4176 pd=3.46 as=0.4176 ps=3.46 w=1.44 l=1.44
X173 VDD.t755 D_FlipFlop_7.3-input-nand_2.C.t4 D_FlipFlop_7.3-input-nand_2.Vout.t1 VDD.t491 sky130_fd_pr__pfet_g5v0d10v5 ad=0.4176 pd=3.46 as=0.4176 ps=3.46 w=1.44 l=0.72
X174 RingCounter_0.D_FlipFlop_6.Nand_Gate_0.Vout RingCounter_0.D_FlipFlop_6.Inverter_1.Vout.t2 VDD.t963 VDD.t962 sky130_fd_pr__pfet_g5v0d10v5 ad=0.4176 pd=3.46 as=0.4176 ps=3.46 w=1.44 l=0.72
X175 GND.t58 D_FlipFlop_2.3-input-nand_2.C.t5 a_130209_37007# GND.t57 sky130_fd_pr__nfet_g5v0d10v5 ad=0.4176 pd=3.46 as=0.4176 ps=3.46 w=1.44 l=1.44
X176 Nand_Gate_1.Vout.t1 Nand_Gate_1.B.t4 VDD.t687 VDD.t686 sky130_fd_pr__pfet_g5v0d10v5 ad=0.4176 pd=3.46 as=0.4176 ps=3.46 w=1.44 l=0.72
X177 RingCounter_0.D_FlipFlop_12.Nand_Gate_0.Vout RingCounter_0.D_FlipFlop_12.3-input-nand_2.Vout.t5 VDD.t11 VDD.t10 sky130_fd_pr__pfet_g5v0d10v5 ad=0.4176 pd=3.46 as=0.4176 ps=3.46 w=1.44 l=0.72
X178 GND.t91 Nand_Gate_0.A.t5 a_134897_37007# GND.t90 sky130_fd_pr__nfet_g5v0d10v5 ad=0.4176 pd=3.46 as=0.4176 ps=3.46 w=1.44 l=1.44
X179 Comparator_0.Vinm CDAC8_0.switch_7.Z.t118 sky130_fd_pr__cap_mim_m3_2 l=2 w=22.7
X180 a_69199_52572# RingCounter_0.D_FlipFlop_2.Nand_Gate_0.Vout a_68585_52572# GND.t804 sky130_fd_pr__nfet_g5v0d10v5 ad=0.4176 pd=3.46 as=0.4176 ps=3.46 w=1.44 l=1.44
X181 Comparator_0.Vinm CDAC8_0.switch_7.Z.t117 sky130_fd_pr__cap_mim_m3_2 l=2 w=22.7
X182 GND.t866 Nand_Gate_7.A.t4 RingCounter_0.D_FlipFlop_15.3-input-nand_1.B GND.t865 sky130_fd_pr__nfet_g5v0d10v5 ad=0.4176 pd=3.46 as=0.4176 ps=3.46 w=1.44 l=1.44
X183 VDD.t643 Nand_Gate_4.B.t4 D_FlipFlop_7.3-input-nand_2.Vout.t3 VDD.t581 sky130_fd_pr__pfet_g5v0d10v5 ad=0.4176 pd=3.46 as=0.4176 ps=3.46 w=1.44 l=0.72
X184 Comparator_0.Vinm CDAC8_0.switch_7.Z.t116 sky130_fd_pr__cap_mim_m3_2 l=2 w=22.7
X185 Comparator_0.Vinm CDAC8_0.switch_9.Z.t31 sky130_fd_pr__cap_mim_m3_2 l=2 w=22.7
X186 RingCounter_0.D_FlipFlop_7.3-input-nand_1.B Nand_Gate_2.B.t6 GND.t544 GND.t543 sky130_fd_pr__nfet_g5v0d10v5 ad=0.4176 pd=3.46 as=0.4176 ps=3.46 w=1.44 l=1.44
X187 GND.t549 Nand_Gate_4.B.t5 a_128851_19786# GND.t501 sky130_fd_pr__nfet_g5v0d10v5 ad=0.4176 pd=3.46 as=0.4176 ps=3.46 w=1.44 l=1.44
X188 a_132311_26914# D_FlipFlop_5.3-input-nand_2.C.t5 D_FlipFlop_5.3-input-nand_2.Vout.t1 GND.t298 sky130_fd_pr__nfet_g5v0d10v5 ad=0.4176 pd=3.46 as=0.4176 ps=3.46 w=1.44 l=1.44
X189 a_72835_13083# Nand_Gate_7.B.t5 RingCounter_0.D_FlipFlop_13.Qbar GND.t466 sky130_fd_pr__nfet_g5v0d10v5 ad=0.4176 pd=3.46 as=0.4176 ps=3.46 w=1.44 l=1.44
X190 RingCounter_0.D_FlipFlop_7.3-input-nand_0.Vout VDD.t467 VDD.t469 VDD.t468 sky130_fd_pr__pfet_g5v0d10v5 ad=0.4176 pd=3.46 as=0.4176 ps=3.46 w=1.44 l=0.72
X191 a_77523_13083# RingCounter_0.D_FlipFlop_13.3-input-nand_1.Vout.t4 a_76909_13083# GND.t745 sky130_fd_pr__nfet_g5v0d10v5 ad=0.4176 pd=3.46 as=0.4176 ps=3.46 w=1.44 l=1.44
X192 Comparator_0.Vinm CDAC8_0.switch_6.Z.t60 sky130_fd_pr__cap_mim_m3_2 l=2 w=22.7
X193 a_73579_52572# VDD.t1114 GND.t161 GND.t160 sky130_fd_pr__nfet_g5v0d10v5 ad=0.4176 pd=3.46 as=0.4176 ps=3.46 w=1.44 l=1.44
X194 RingCounter_0.D_FlipFlop_7.3-input-nand_0.Vout CLK.t13 VDD.t1090 VDD.t1025 sky130_fd_pr__pfet_g5v0d10v5 ad=0.4176 pd=3.46 as=0.4176 ps=3.46 w=1.44 l=0.72
X195 GND.t589 Nand_Gate_1.B.t5 RingCounter_0.D_FlipFlop_9.3-input-nand_1.B GND.t588 sky130_fd_pr__nfet_g5v0d10v5 ad=0.4176 pd=3.46 as=0.4176 ps=3.46 w=1.44 l=1.44
X196 VDD.t278 FFCLR.t10 D_FlipFlop_6.Qbar VDD.t177 sky130_fd_pr__pfet_g5v0d10v5 ad=0.4176 pd=3.46 as=0.4176 ps=3.46 w=1.44 l=0.72
X197 GND.t625 RingCounter_0.D_FlipFlop_14.3-input-nand_2.Vout.t4 a_63767_15797# GND.t624 sky130_fd_pr__nfet_g5v0d10v5 ad=0.4176 pd=3.46 as=0.4176 ps=3.46 w=1.44 l=1.44
X198 GND.t332 And_Gate_2.Vout.t2 D_FlipFlop_5.Inverter_1.Vout GND.t331 sky130_fd_pr__nfet_g5v0d10v5 ad=0.4176 pd=3.46 as=0.4176 ps=3.46 w=1.44 l=1.44
X199 RingCounter_0.D_FlipFlop_2.3-input-nand_1.Vout.t3 CLK.t14 a_63153_49858# GND.t29 sky130_fd_pr__nfet_g5v0d10v5 ad=0.4176 pd=3.46 as=0.4176 ps=3.46 w=1.44 l=1.44
X200 Comparator_0.Vinm CDAC8_0.switch_6.Z.t59 sky130_fd_pr__cap_mim_m3_2 l=2 w=22.7
X201 VDD.t1089 CLK.t15 RingCounter_0.D_FlipFlop_12.3-input-nand_1.Vout.t1 VDD.t1045 sky130_fd_pr__pfet_g5v0d10v5 ad=0.4176 pd=3.46 as=0.4176 ps=3.46 w=1.44 l=0.72
X202 VDD.t702 RingCounter_0.D_FlipFlop_4.3-input-nand_2.C.t4 RingCounter_0.D_FlipFlop_4.Nand_Gate_1.Vout.t0 VDD.t169 sky130_fd_pr__pfet_g5v0d10v5 ad=0.4176 pd=3.46 as=0.4176 ps=3.46 w=1.44 l=0.72
X203 Comparator_0.Vinm CDAC8_0.switch_7.Z.t115 sky130_fd_pr__cap_mim_m3_2 l=2 w=22.7
X204 RingCounter_0.D_FlipFlop_4.3-input-nand_1.Vout.t3 CLK.t16 VDD.t1088 VDD.t1055 sky130_fd_pr__pfet_g5v0d10v5 ad=0.4176 pd=3.46 as=0.4176 ps=3.46 w=1.44 l=0.72
X205 Comparator_0.Vinm CDAC8_0.switch_6.Z.t58 sky130_fd_pr__cap_mim_m3_2 l=2 w=22.7